*Heading
** Job name: Job-new1 Model name: CL1_3CT1_2_Torsion-linear
** Generated by: Abaqus/CAE 2024
*Preprint, echo=NO, model=NO, history=NO, contact=NO
**
** PARTS
**
*Part, name=PART-1
*Node
      1,  -133.333328,        -100.,        -200.
      2,  -133.333328,        -100.,  -203.333328
      3,  -133.333328,        -100.,  -206.666672
      4,  -133.333328,        -100.,        -210.
      5,  -133.333328,        -100.,  -213.333328
      6,  -133.333328,        -100.,  -216.666672
      7,  -133.333328,        -100.,        -220.
      8,  -133.333328,        -100.,  -223.333328
      9,  -133.333328,        -100.,  -226.666672
     10,  -133.333328,        -100.,        -230.
     11,  -133.333328,        -100.,  -233.333328
     12,  -133.333328,        -100.,  -236.666672
     13,  -133.333328,        -100.,        -240.
     14,  -133.333328,        -100.,  -243.333328
     15,  -133.333328,        -100.,  -246.666672
     16,  -133.333328,        -100.,        -250.
     17,  -133.333328,        -100.,  -253.333328
     18,  -133.333328,        -100.,  -256.666656
     19,  -133.333328,        -100.,        -260.
     20,  -133.333328,        -100.,  -263.333344
** ... 66237 like lines cut
*Element, type=S4R
    1,   182,   185,   186,   181
    2,   181,   186,   177,   178
    3,   185,   170,   171,   186
    4,   186,   171,   172,   177
    5,   183,   187,   185,   182
    6,   187,   169,   170,   185
    7,   161,   162,   188,   184
    8,   184,   188,   187,   183
    9,   162,   163,   168,   188
   10,   188,   168,   169,   187
   11,   146,   189,   191,   145
   12,   145,   191,   180,   144
   13,   189,   190,   192,   191
   14,   191,   192,   179,   180
   15,   190,   182,   181,   192
   16,   192,   181,   178,   179
   17,   149,   159,   193,   148
   18,   148,   193,   194,   147
   19,   147,   194,   189,   146
   20,   184,   195,   160,   161
** ... 66166 like lines cut
*Elset, elset=HMPROP_5MM
     1,     2,     3,     4,     5,     6,     7,     8,     9,    10,    11,    12,    13,    14,    15,    16
    17,    18,    19,    20,    21,    22,    23,    24,    25,    26,    27,    28,    29,    30,    31,    32
    33,    34,    35,    36,    37,    38,    39,    40,    41,    42,    43,    44,    45,    46,    47,    48
    49,    50,    51,    52,    53,    54,    55,    56,    57,    58,    59,    60,    61,    62,    63,    64
    65,    66,    67,    68,    69,    70,    71,    72,    73,    74,    75,    76,    77,    78,    79,    80
    81,    82,    83,    84,    85,    86,    87,    88,    89,    90,    91,    92,    93,    94,    95,    96
    97,    98,    99,   100,   101,   102,   103,   104,   105,   106,   107,   108,   109,   110,   111,   112
   113,   114,   115,   116,   117,   118,   119,   120,   121,   122,   123,   124,   125,   126,   127,   128
   129,   130,   131,   132,   133,   134,   135,   136,   137,   138,   139,   140,   141,   142,   143,   144
   145,   146,   147,   148,   149,   150,   151,   152,   153,   154,   155,   156,   157,   158,   159,   160
   161,   162,   163,   164,   165,   166,   167,   168,   169,   170,   171,   172,   173,   174,   175,   176
   177,   178,   179,   180,   181,   182,   183,   184,   185,   186,   187,   188,   189,   190,   191,   192
   193,   194,   195,   196,   197,   198,   199,   200,   201,   202,   203,   204,   205,   206,   207,   208
   209,   210,   211,   212,   213,   214,   215,   216,   217,   218,   219,   220,   221,   222,   223,   224
   225,   226,   227,   228,   229,   230,   231,   232,   233,   234,   235,   236,   237,   238,   239,   240
   241,   242,   243,   244,   245,   246,   247,   248,   249,   250,   251,   252,   253,   254,   255,   256
   257,   258,   259,   260,   261,   262,   263,   264,   265,   266,   267,   268,   269,   270,   271,   272
   273,   274,   275,   276,   277,   278,   279,   280,   281,   282,   283,   284,   285,   286,   287,   288
   289,   290,   291,   292,   293,   294,   295,   296,   297,   298,   299,   300,   301,   302,   303,   304
   305,   306,   307,   308,   309,   310,   311,   312,   313,   314,   315,   316,   317,   318,   319,   320
** ... 3331 like lines cut
*Elset, elset=HMPROP_HATCH_L
 14115, 14116, 14117, 14118, 14119, 14120, 14121, 14122, 14123, 14124, 14125, 14126, 14127, 14128, 14129, 14130
 14131, 14132, 14133, 14134, 14135, 14136, 14137, 14138, 14139, 14140, 14141, 14142, 14143, 14144, 14145, 14146
 14147, 14148, 14149, 14150, 14151, 14152, 14153, 14154, 14155, 14156, 14157, 14158, 14159, 14160, 14161, 14162
 14163, 14164, 14165, 14166, 14167, 14168, 14169, 14170, 14171, 14172, 14173, 14174, 14175, 14176, 14177, 14178
 14179, 14180, 14181, 14182, 14183, 14184, 14185, 14186, 14187, 14188, 14189, 14190, 14191, 14192, 14193, 14194
 14195, 14196, 14197, 14198, 14199, 14200, 14201, 14202, 14203, 14204, 14205, 14206, 14207, 14208, 14209, 14210
 14211, 14212, 14213, 14214, 14215, 14216, 14217, 14218, 14219, 14220, 14221, 14222, 14223, 14224, 14225, 14226
 14227, 14228, 14229, 14230, 14231, 14232, 14233, 14234, 14235, 14236, 14237, 14238, 14239, 14240, 14241, 14242
 14243, 14244, 14245, 14246, 14247, 14248, 14249, 14250, 14251, 14252, 14253, 14254, 14255, 14256, 14257, 14258
 14259, 14260, 14261, 14262, 37879, 37880, 37881, 37882, 37883, 37884, 37885, 37886, 37887, 37888, 37889, 37890
 37891, 37892, 37893, 37894, 37895, 37896, 37897, 37898, 37899, 37900, 37901, 37902, 37903, 37904, 37905, 37906
 37907, 37908, 37909, 37910, 37911, 37912, 37913, 37914, 37915, 37916, 37917, 37918, 37919, 37920, 37921, 37922
 37923, 37924, 37925, 37926, 37927, 37928, 37929, 37930, 37931, 37932, 37933, 37934, 37935, 37936, 37937, 37938
 37939, 37940, 37941, 37942, 37943, 37944, 37945, 37946, 37947, 37948, 37949, 37950, 37951, 37952, 37953, 37954
 37955, 37956, 37957, 37958, 37959, 37960, 37961, 37962, 37963, 37964, 37965, 37966, 37967, 37968, 37969, 37970
 37971, 37972, 37973, 37974, 37975, 37976, 37977, 37978, 37979, 37980, 37981, 37982, 37983, 37984, 37985, 37986
 37987, 37988, 37989, 37990, 37991, 37992, 37993, 37994, 37995, 37996, 37997, 37998, 37999, 38000, 38001, 38002
 38003, 38004, 38005, 38006, 38007, 38008, 38009, 38010, 38011, 38012, 38013, 38014, 38015, 38016, 38017, 38018
 38019, 38020, 38021, 38022, 38023, 38024, 38025, 38026, 38027, 38028, 38029, 38030, 38031, 38032, 38033, 38034
 38035, 38036, 38037, 38038, 38039, 38040, 38041, 38042, 38043, 38044, 38045, 38046, 38047, 38048, 38049, 38050
** ... 9 like lines cut
*Elset, elset=HMPROP_WEB, generate
  2001,  14114,      1
** Section: Section-1-HMPROP_5MM
*Shell Section, elset=HMPROP_5MM, material=STEEL
2.5, 5
** Section: Section-2-HMPROP_WEB
*Shell Section, elset=HMPROP_WEB, material=STEEL
2.5, 5
** Section: Section-3-HMPROP_HATCH_L
*Shell Section, elset=HMPROP_HATCH_L, material=STEEL
3.6, 5
*End Part
**  
**
** ASSEMBLY
**
*Assembly, name=Assembly
**  
*Instance, name=PART-1-1, part=PART-1
*End Instance
**  
*Node
      1,           0.,           0.,   333.333344
*Node
      2,           0.,           0.,  -333.333344
*Elset, elset=COMP1, instance=PART-1-1
     1,     2,     3,     4,     5,     6,     7,     8,     9,    10,    11,    12,    13,    14,    15,    16
    17,    18,    19,    20,    21,    22,    23,    24,    25,    26,    27,    28,    29,    30,    31,    32
    33,    34,    35,    36,    37,    38,    39,    40,    41,    42,    43,    44,    45,    46,    47,    48
    49,    50,    51,    52,    53,    54,    55,    56,    57,    58,    59,    60,    61,    62,    63,    64
    65,    66,    67,    68,    69,    70,    71,    72,    73,    74,    75,    76,    77,    78,    79,    80
    81,    82,    83,    84,    85,    86,    87,    88,    89,    90,    91,    92,    93,    94,    95,    96
    97,    98,    99,   100,   101,   102,   103,   104,   105,   106,   107,   108,   109,   110,   111,   112
   113,   114,   115,   116,   117,   118,   119,   120,   121,   122,   123,   124,   125,   126,   127,   128
   129,   130,   131,   132,   133,   134,   135,   136,   137,   138,   139,   140,   141,   142,   143,   144
   145,   146,   147,   148,   149,   150,   151,   152,   153,   154,   155,   156,   157,   158,   159,   160
   161,   162,   163,   164,   165,   166,   167,   168,   169,   170,   171,   172,   173,   174,   175,   176
   177,   178,   179,   180,   181,   182,   183,   184,   185,   186,   187,   188,   189,   190,   191,   192
   193,   194,   195,   196,   197,   198,   199,   200,   201,   202,   203,   204,   205,   206,   207,   208
   209,   210,   211,   212,   213,   214,   215,   216,   217,   218,   219,   220,   221,   222,   223,   224
   225,   226,   227,   228,   229,   230,   231,   232,   233,   234,   235,   236,   237,   238,   239,   240
   241,   242,   243,   244,   245,   246,   247,   248,   249,   250,   251,   252,   253,   254,   255,   256
   257,   258,   259,   260,   261,   262,   263,   264,   265,   266,   267,   268,   269,   270,   271,   272
   273,   274,   275,   276,   277,   278,   279,   280,   281,   282,   283,   284,   285,   286,   287,   288
   289,   290,   291,   292,   293,   294,   295,   296,   297,   298,   299,   300,   301,   302,   303,   304
   305,   306,   307,   308,   309,   310,   311,   312,   313,   314,   315,   316,   317,   318,   319,   320
** ... 980 like lines cut
*Elset, elset=COMP2, instance=PART-1-1
   801,   802,   803,   804,   805,   806,   807,   808,   809,   810,   811,   812,   813,   814,   815,   816
   817,   818,   819,   820,   821,   822,   823,   824,   825,   826,   827,   828,   829,   830,   831,   832
   833,   834,   835,   836,   837,   838,   839,   840,   841,   842,   843,   844,   845,   846,   847,   848
   849,   850,   851,   852,   853,   854,   855,   856,   857,   858,   859,   860,   861,   862,   863,   864
   865,   866,   867,   868,   869,   870,   871,   872,   873,   874,   875,   876,   877,   878,   879,   880
 50667, 50668, 50669, 50670, 50671, 50672, 50673, 50674, 50675, 50676, 50677, 50678, 50679, 50680, 50681, 50682
 50683, 50684, 50685, 50686, 50687, 50688, 50689, 50690, 50691, 50692, 50693, 50694, 50695, 50696, 50697, 50698
 50699, 50700, 50701, 50702, 50703, 50704, 50705, 50706, 50707, 50708, 50709, 50710, 50711, 50712, 50713, 50714
 50715, 50716, 50717, 50718, 50719, 50720, 50721, 50722, 50723, 50724, 50725, 50726, 50727, 50728, 50729, 50730
 50731, 50732, 50733, 50734, 50735, 50736, 50737, 50738, 50739, 50740, 50741, 50742, 50743, 50744, 50745, 50746
 50747, 50748, 50749, 50750, 50751, 50752, 50753, 50754, 50755, 50756, 50757, 50758, 50759, 50760, 50761, 50762
 50763, 50764, 50765, 50766, 50767, 50768, 50769, 50770, 50771, 50772, 50773, 50774, 50775, 50776, 50777, 50778
 50779, 50780, 50781, 50782, 50783, 50784, 50785, 50786, 50787, 50788, 50789, 50790, 50791, 50792, 50793, 50794
 50795, 50796, 50797, 50798, 50799, 50800, 50801, 50802, 50803, 50804, 50805, 50806, 50807, 50808, 50809, 50810
 50811, 50812, 50813, 50814, 50815, 50816, 50817, 50818, 50819, 50820, 50821, 50822, 50823, 50824, 50825, 50826
 50827, 50828, 50829, 50830, 50831, 50832, 50833, 50834, 50835, 50836, 50837, 50838, 50839, 50840, 50841, 50842
 50843, 50844, 50845, 50846, 50847, 50848, 50849, 50850, 50851, 50852, 50853, 50854, 50855, 50856, 50857, 50858
 50859, 50860, 50861, 50862, 50863, 50864, 50865, 50866, 50867, 50868, 50869, 50870, 50871, 50872, 50873, 50874
 50875, 50876, 50877, 50878, 50879, 50880, 50881, 50882, 50883, 50884, 50885, 50886, 50887, 50888, 50889, 50890
 50891, 50892, 50893, 50894, 50895, 50896, 50897, 50898, 50899, 50900, 50901, 50902, 50903, 50904, 50905, 50906
** ... 5 like lines cut
*Elset, elset=COMP3, instance=PART-1-1
   881,   882,   883,   884,   885,   886,   887,   888,   889,   890,   891,   892,   893,   894,   895,   896
   897,   898,   899,   900,   901,   902,   903,   904,   905,   906,   907,   908,   909,   910,   911,   912
   913,   914,   915,   916,   917,   918,   919,   920,   921,   922,   923,   924,   925,   926,   927,   928
   929,   930,   931,   932,   933,   934,   935,   936,   937,   938,   939,   940,   941,   942,   943,   944
   945,   946,   947,   948,   949,   950,   951,   952,   953,   954,   955,   956,   957,   958,   959,   960
 50347, 50348, 50349, 50350, 50351, 50352, 50353, 50354, 50355, 50356, 50357, 50358, 50359, 50360, 50361, 50362
 50363, 50364, 50365, 50366, 50367, 50368, 50369, 50370, 50371, 50372, 50373, 50374, 50375, 50376, 50377, 50378
 50379, 50380, 50381, 50382, 50383, 50384, 50385, 50386, 50387, 50388, 50389, 50390, 50391, 50392, 50393, 50394
 50395, 50396, 50397, 50398, 50399, 50400, 50401, 50402, 50403, 50404, 50405, 50406, 50407, 50408, 50409, 50410
 50411, 50412, 50413, 50414, 50415, 50416, 50417, 50418, 50419, 50420, 50421, 50422, 50423, 50424, 50425, 50426
 50427, 50428, 50429, 50430, 50431, 50432, 50433, 50434, 50435, 50436, 50437, 50438, 50439, 50440, 50441, 50442
 50443, 50444, 50445, 50446, 50447, 50448, 50449, 50450, 50451, 50452, 50453, 50454, 50455, 50456, 50457, 50458
 50459, 50460, 50461, 50462, 50463, 50464, 50465, 50466, 50467, 50468, 50469, 50470, 50471, 50472, 50473, 50474
 50475, 50476, 50477, 50478, 50479, 50480, 50481, 50482, 50483, 50484, 50485, 50486, 50487, 50488, 50489, 50490
 50491, 50492, 50493, 50494, 50495, 50496, 50497, 50498, 50499, 50500, 50501, 50502, 50503, 50504, 50505, 50506
 50507, 50508, 50509, 50510, 50511, 50512, 50513, 50514, 50515, 50516, 50517, 50518, 50519, 50520, 50521, 50522
 50523, 50524, 50525, 50526, 50527, 50528, 50529, 50530, 50531, 50532, 50533, 50534, 50535, 50536, 50537, 50538
 50539, 50540, 50541, 50542, 50543, 50544, 50545, 50546, 50547, 50548, 50549, 50550, 50551, 50552, 50553, 50554
 50555, 50556, 50557, 50558, 50559, 50560, 50561, 50562, 50563, 50564, 50565, 50566, 50567, 50568, 50569, 50570
 50571, 50572, 50573, 50574, 50575, 50576, 50577, 50578, 50579, 50580, 50581, 50582, 50583, 50584, 50585, 50586
** ... 5 like lines cut
*Elset, elset=COMP4, instance=PART-1-1
   961,   962,   963,   964,   965,   966,   967,   968,   969,   970,   971,   972,   973,   974,   975,   976
   977,   978,   979,   980,   981,   982,   983,   984,   985,   986,   987,   988,   989,   990,   991,   992
   993,   994,   995,   996,   997,   998,   999,  1000,  1001,  1002,  1003,  1004,  1005,  1006,  1007,  1008
  1009,  1010,  1011,  1012,  1013,  1014,  1015,  1016,  1017,  1018,  1019,  1020,  1021,  1022,  1023,  1024
  1025,  1026,  1027,  1028,  1029,  1030,  1031,  1032,  1033,  1034,  1035,  1036,  1037,  1038,  1039,  1040
 50027, 50028, 50029, 50030, 50031, 50032, 50033, 50034, 50035, 50036, 50037, 50038, 50039, 50040, 50041, 50042
 50043, 50044, 50045, 50046, 50047, 50048, 50049, 50050, 50051, 50052, 50053, 50054, 50055, 50056, 50057, 50058
 50059, 50060, 50061, 50062, 50063, 50064, 50065, 50066, 50067, 50068, 50069, 50070, 50071, 50072, 50073, 50074
 50075, 50076, 50077, 50078, 50079, 50080, 50081, 50082, 50083, 50084, 50085, 50086, 50087, 50088, 50089, 50090
 50091, 50092, 50093, 50094, 50095, 50096, 50097, 50098, 50099, 50100, 50101, 50102, 50103, 50104, 50105, 50106
 50107, 50108, 50109, 50110, 50111, 50112, 50113, 50114, 50115, 50116, 50117, 50118, 50119, 50120, 50121, 50122
 50123, 50124, 50125, 50126, 50127, 50128, 50129, 50130, 50131, 50132, 50133, 50134, 50135, 50136, 50137, 50138
 50139, 50140, 50141, 50142, 50143, 50144, 50145, 50146, 50147, 50148, 50149, 50150, 50151, 50152, 50153, 50154
 50155, 50156, 50157, 50158, 50159, 50160, 50161, 50162, 50163, 50164, 50165, 50166, 50167, 50168, 50169, 50170
 50171, 50172, 50173, 50174, 50175, 50176, 50177, 50178, 50179, 50180, 50181, 50182, 50183, 50184, 50185, 50186
 50187, 50188, 50189, 50190, 50191, 50192, 50193, 50194, 50195, 50196, 50197, 50198, 50199, 50200, 50201, 50202
 50203, 50204, 50205, 50206, 50207, 50208, 50209, 50210, 50211, 50212, 50213, 50214, 50215, 50216, 50217, 50218
 50219, 50220, 50221, 50222, 50223, 50224, 50225, 50226, 50227, 50228, 50229, 50230, 50231, 50232, 50233, 50234
 50235, 50236, 50237, 50238, 50239, 50240, 50241, 50242, 50243, 50244, 50245, 50246, 50247, 50248, 50249, 50250
 50251, 50252, 50253, 50254, 50255, 50256, 50257, 50258, 50259, 50260, 50261, 50262, 50263, 50264, 50265, 50266
** ... 5 like lines cut
*Elset, elset=COMP5, instance=PART-1-1
  1041,  1042,  1043,  1044,  1045,  1046,  1047,  1048,  1049,  1050,  1051,  1052,  1053,  1054,  1055,  1056
  1057,  1058,  1059,  1060,  1061,  1062,  1063,  1064,  1065,  1066,  1067,  1068,  1069,  1070,  1071,  1072
  1073,  1074,  1075,  1076,  1077,  1078,  1079,  1080,  1081,  1082,  1083,  1084,  1085,  1086,  1087,  1088
  1089,  1090,  1091,  1092,  1093,  1094,  1095,  1096,  1097,  1098,  1099,  1100,  1101,  1102,  1103,  1104
  1105,  1106,  1107,  1108,  1109,  1110,  1111,  1112,  1113,  1114,  1115,  1116,  1117,  1118,  1119,  1120
  1121,  1122,  1123,  1124,  1125,  1126,  1127,  1128,  1129,  1130,  1131,  1132,  1133,  1134,  1135,  1136
  1137,  1138,  1139,  1140,  1141,  1142,  1143,  1144,  1145,  1146,  1147,  1148,  1149,  1150,  1151,  1152
  1153,  1154,  1155,  1156,  1157,  1158,  1159,  1160,  1161,  1162,  1163,  1164,  1165,  1166,  1167,  1168
  1169,  1170,  1171,  1172,  1173,  1174,  1175,  1176,  1177,  1178,  1179,  1180,  1181,  1182,  1183,  1184
  1185,  1186,  1187,  1188,  1189,  1190,  1191,  1192,  1193,  1194,  1195,  1196,  1197,  1198,  1199,  1200
  1201,  1202,  1203,  1204,  1205,  1206,  1207,  1208,  1209,  1210,  1211,  1212,  1213,  1214,  1215,  1216
  1217,  1218,  1219,  1220,  1221,  1222,  1223,  1224,  1225,  1226,  1227,  1228,  1229,  1230,  1231,  1232
  1233,  1234,  1235,  1236,  1237,  1238,  1239,  1240,  1241,  1242,  1243,  1244,  1245,  1246,  1247,  1248
  1249,  1250,  1251,  1252,  1253,  1254,  1255,  1256,  1257,  1258,  1259,  1260,  1261,  1262,  1263,  1264
  1265,  1266,  1267,  1268,  1269,  1270,  1271,  1272,  1273,  1274,  1275,  1276,  1277,  1278,  1279,  1280
  1281,  1282,  1283,  1284,  1285,  1286,  1287,  1288,  1289,  1290,  1291,  1292,  1293,  1294,  1295,  1296
  1297,  1298,  1299,  1300,  1301,  1302,  1303,  1304,  1305,  1306,  1307,  1308,  1309,  1310,  1311,  1312
  1313,  1314,  1315,  1316,  1317,  1318,  1319,  1320,  1321,  1322,  1323,  1324,  1325,  1326,  1327,  1328
  1329,  1330,  1331,  1332,  1333,  1334,  1335,  1336,  1337,  1338,  1339,  1340,  1341,  1342,  1343,  1344
  1345,  1346,  1347,  1348,  1349,  1350,  1351,  1352,  1353,  1354,  1355,  1356,  1357,  1358,  1359,  1360
** ... 730 like lines cut
*Elset, elset=COMP6, instance=PART-1-1
  1841,  1842,  1843,  1844,  1845,  1846,  1847,  1848,  1849,  1850,  1851,  1852,  1853,  1854,  1855,  1856
  1857,  1858,  1859,  1860,  1861,  1862,  1863,  1864,  1865,  1866,  1867,  1868,  1869,  1870,  1871,  1872
  1873,  1874,  1875,  1876,  1877,  1878,  1879,  1880,  1881,  1882,  1883,  1884,  1885,  1886,  1887,  1888
  1889,  1890,  1891,  1892,  1893,  1894,  1895,  1896,  1897,  1898,  1899,  1900,  1901,  1902,  1903,  1904
  1905,  1906,  1907,  1908,  1909,  1910,  1911,  1912,  1913,  1914,  1915,  1916,  1917,  1918,  1919,  1920
 38507, 38508, 38509, 38510, 38511, 38512, 38513, 38514, 38515, 38516, 38517, 38518, 38519, 38520, 38521, 38522
 38523, 38524, 38525, 38526, 38527, 38528, 38529, 38530, 38531, 38532, 38533, 38534, 38535, 38536, 38537, 38538
 38539, 38540, 38541, 38542, 38543, 38544, 38545, 38546, 38547, 38548, 38549, 38550, 38551, 38552, 38553, 38554
 38555, 38556, 38557, 38558, 38559, 38560, 38561, 38562, 38563, 38564, 38565, 38566, 38567, 38568, 38569, 38570
 38571, 38572, 38573, 38574, 38575, 38576, 38577, 38578, 38579, 38580, 38581, 38582, 38583, 38584, 38585, 38586
 38587, 38588, 38589, 38590, 38591, 38592, 38593, 38594, 38595, 38596, 38597, 38598, 38599, 38600, 38601, 38602
 38603, 38604, 38605, 38606, 38607, 38608, 38609, 38610, 38611, 38612, 38613, 38614, 38615, 38616, 38617, 38618
 38619, 38620, 38621, 38622, 38623, 38624, 38625, 38626, 38627, 38628, 38629, 38630, 38631, 38632, 38633, 38634
 38635, 38636, 38637, 38638, 38639, 38640, 38641, 38642, 38643, 38644, 38645, 38646, 38647, 38648, 38649, 38650
 38651, 38652, 38653, 38654, 38655, 38656, 38657, 38658, 38659, 38660, 38661, 38662, 38663, 38664, 38665, 38666
 38667, 38668, 38669, 38670, 38671, 38672, 38673, 38674, 38675, 38676, 38677, 38678, 38679, 38680, 38681, 38682
 38683, 38684, 38685, 38686, 38687, 38688, 38689, 38690, 38691, 38692, 38693, 38694, 38695, 38696, 38697, 38698
 38699, 38700, 38701, 38702, 38703, 38704, 38705, 38706, 38707, 38708, 38709, 38710, 38711, 38712, 38713, 38714
 38715, 38716, 38717, 38718, 38719, 38720, 38721, 38722, 38723, 38724, 38725, 38726, 38727, 38728, 38729, 38730
 38731, 38732, 38733, 38734, 38735, 38736, 38737, 38738, 38739, 38740, 38741, 38742, 38743, 38744, 38745, 38746
** ... 5 like lines cut
*Elset, elset=COMP7, instance=PART-1-1
  1921,  1922,  1923,  1924,  1925,  1926,  1927,  1928,  1929,  1930,  1931,  1932,  1933,  1934,  1935,  1936
  1937,  1938,  1939,  1940,  1941,  1942,  1943,  1944,  1945,  1946,  1947,  1948,  1949,  1950,  1951,  1952
  1953,  1954,  1955,  1956,  1957,  1958,  1959,  1960,  1961,  1962,  1963,  1964,  1965,  1966,  1967,  1968
  1969,  1970,  1971,  1972,  1973,  1974,  1975,  1976,  1977,  1978,  1979,  1980,  1981,  1982,  1983,  1984
  1985,  1986,  1987,  1988,  1989,  1990,  1991,  1992,  1993,  1994,  1995,  1996,  1997,  1998,  1999,  2000
 38187, 38188, 38189, 38190, 38191, 38192, 38193, 38194, 38195, 38196, 38197, 38198, 38199, 38200, 38201, 38202
 38203, 38204, 38205, 38206, 38207, 38208, 38209, 38210, 38211, 38212, 38213, 38214, 38215, 38216, 38217, 38218
 38219, 38220, 38221, 38222, 38223, 38224, 38225, 38226, 38227, 38228, 38229, 38230, 38231, 38232, 38233, 38234
 38235, 38236, 38237, 38238, 38239, 38240, 38241, 38242, 38243, 38244, 38245, 38246, 38247, 38248, 38249, 38250
 38251, 38252, 38253, 38254, 38255, 38256, 38257, 38258, 38259, 38260, 38261, 38262, 38263, 38264, 38265, 38266
 38267, 38268, 38269, 38270, 38271, 38272, 38273, 38274, 38275, 38276, 38277, 38278, 38279, 38280, 38281, 38282
 38283, 38284, 38285, 38286, 38287, 38288, 38289, 38290, 38291, 38292, 38293, 38294, 38295, 38296, 38297, 38298
 38299, 38300, 38301, 38302, 38303, 38304, 38305, 38306, 38307, 38308, 38309, 38310, 38311, 38312, 38313, 38314
 38315, 38316, 38317, 38318, 38319, 38320, 38321, 38322, 38323, 38324, 38325, 38326, 38327, 38328, 38329, 38330
 38331, 38332, 38333, 38334, 38335, 38336, 38337, 38338, 38339, 38340, 38341, 38342, 38343, 38344, 38345, 38346
 38347, 38348, 38349, 38350, 38351, 38352, 38353, 38354, 38355, 38356, 38357, 38358, 38359, 38360, 38361, 38362
 38363, 38364, 38365, 38366, 38367, 38368, 38369, 38370, 38371, 38372, 38373, 38374, 38375, 38376, 38377, 38378
 38379, 38380, 38381, 38382, 38383, 38384, 38385, 38386, 38387, 38388, 38389, 38390, 38391, 38392, 38393, 38394
 38395, 38396, 38397, 38398, 38399, 38400, 38401, 38402, 38403, 38404, 38405, 38406, 38407, 38408, 38409, 38410
 38411, 38412, 38413, 38414, 38415, 38416, 38417, 38418, 38419, 38420, 38421, 38422, 38423, 38424, 38425, 38426
** ... 5 like lines cut
*Elset, elset=COMP8, instance=PART-1-1, generate
 2001,  3257,     1
*Elset, elset=COMP9, instance=PART-1-1, generate
 3258,  4514,     1
*Elset, elset=COMP10, instance=PART-1-1, generate
 4515,  9314,     1
*Elset, elset=COMP11, instance=PART-1-1, generate
  9315,  14114,      1
*Elset, elset=COMP12, instance=PART-1-1
 14115, 14116, 14117, 14118, 14119, 14120, 14121, 14122, 14123, 14124, 14125, 14126, 14127, 14128, 14129, 14130
 14131, 14132, 14133, 14134, 14135, 14136, 14137, 14138, 14139, 14140, 14141, 14142, 14143, 14144, 14145, 14146
 14147, 14148, 14149, 14150, 14151, 14152, 14153, 14154, 14155, 14156, 14157, 14158, 14159, 14160, 14161, 14162
 14163, 14164, 14165, 14166, 14167, 14168, 14169, 14170, 14171, 14172, 14173, 14174, 14175, 14176, 14177, 14178
 14179, 14180, 14181, 14182, 14183, 14184, 14185, 14186, 14187, 14188, 38033, 38034, 38035, 38036, 38037, 38038
 38039, 38040, 38041, 38042, 38043, 38044, 38045, 38046, 38047, 38048, 38049, 38050, 38051, 38052, 38053, 38054
 38055, 38056, 38057, 38058, 38059, 38060, 38061, 38062, 38063, 38064, 38065, 38066, 38067, 38068, 38069, 38070
 38071, 38072, 38073, 38074, 38075, 38076, 38077, 38078, 38079, 38080, 38081, 38082, 38083, 38084, 38085, 38086
 38087, 38088, 38089, 38090, 38091, 38092, 38093, 38094, 38095, 38096, 38097, 38098, 38099, 38100, 38101, 38102
 38103, 38104, 38105, 38106, 38107, 38108, 38109, 38110, 38111, 38112, 38113, 38114, 38115, 38116, 38117, 38118
 38119, 38120, 38121, 38122, 38123, 38124, 38125, 38126, 38127, 38128, 38129, 38130, 38131, 38132, 38133, 38134
 38135, 38136, 38137, 38138, 38139, 38140, 38141, 38142, 38143, 38144, 38145, 38146, 38147, 38148, 38149, 38150
 38151, 38152, 38153, 38154, 38155, 38156, 38157, 38158, 38159, 38160, 38161, 38162, 38163, 38164, 38165, 38166
 38167, 38168, 38169, 38170, 38171, 38172, 38173, 38174, 38175, 38176, 38177, 38178, 38179, 38180, 38181, 38182
 38183, 38184, 38185, 38186
*Elset, elset=COMP13, instance=PART-1-1
 14189, 14190, 14191, 14192, 14193, 14194, 14195, 14196, 14197, 14198, 14199, 14200, 14201, 14202, 14203, 14204
 14205, 14206, 14207, 14208, 14209, 14210, 14211, 14212, 14213, 14214, 14215, 14216, 14217, 14218, 14219, 14220
 14221, 14222, 14223, 14224, 14225, 14226, 14227, 14228, 14229, 14230, 14231, 14232, 14233, 14234, 14235, 14236
 14237, 14238, 14239, 14240, 14241, 14242, 14243, 14244, 14245, 14246, 14247, 14248, 14249, 14250, 14251, 14252
 14253, 14254, 14255, 14256, 14257, 14258, 14259, 14260, 14261, 14262, 37879, 37880, 37881, 37882, 37883, 37884
 37885, 37886, 37887, 37888, 37889, 37890, 37891, 37892, 37893, 37894, 37895, 37896, 37897, 37898, 37899, 37900
 37901, 37902, 37903, 37904, 37905, 37906, 37907, 37908, 37909, 37910, 37911, 37912, 37913, 37914, 37915, 37916
 37917, 37918, 37919, 37920, 37921, 37922, 37923, 37924, 37925, 37926, 37927, 37928, 37929, 37930, 37931, 37932
 37933, 37934, 37935, 37936, 37937, 37938, 37939, 37940, 37941, 37942, 37943, 37944, 37945, 37946, 37947, 37948
 37949, 37950, 37951, 37952, 37953, 37954, 37955, 37956, 37957, 37958, 37959, 37960, 37961, 37962, 37963, 37964
 37965, 37966, 37967, 37968, 37969, 37970, 37971, 37972, 37973, 37974, 37975, 37976, 37977, 37978, 37979, 37980
 37981, 37982, 37983, 37984, 37985, 37986, 37987, 37988, 37989, 37990, 37991, 37992, 37993, 37994, 37995, 37996
 37997, 37998, 37999, 38000, 38001, 38002, 38003, 38004, 38005, 38006, 38007, 38008, 38009, 38010, 38011, 38012
 38013, 38014, 38015, 38016, 38017, 38018, 38019, 38020, 38021, 38022, 38023, 38024, 38025, 38026, 38027, 38028
 38029, 38030, 38031, 38032
*Elset, elset=COMP14, instance=PART-1-1
 14263, 14264, 14265, 14266, 14267, 14268, 14269, 14270, 14271, 14272, 14273, 14274, 14275, 14276, 14277, 14278
 14279, 14280, 14281, 14282, 14283, 14284, 14285, 14286, 14287, 14288, 14289, 14290, 14291, 14292, 14293, 14294
 14295, 14296, 14297, 14298, 14299, 14300, 14301, 14302, 14303, 14304, 14305, 14306, 14307, 14308, 14309, 14310
 14311, 14312, 14313, 14314, 14315, 14316, 14317, 14318, 14319, 14320, 14321, 14322, 14323, 14324, 14325, 14326
 14327, 14328, 14329, 14330, 14331, 14332, 14333, 14334, 14335, 14336, 14337, 14338, 14339, 14340, 14341, 14342
 14343, 14344, 14345, 14346, 14347, 14348, 14349, 14350, 14351, 14352, 14353, 14354, 14355, 14356, 14357, 14358
 14359, 14360, 14361, 14362, 14363, 14364, 14365, 14366, 14367, 14368, 14369, 14370, 14371, 14372, 14373, 14374
 14375, 14376, 14377, 14378, 14379, 14380, 14381, 14382, 14383, 14384, 14385, 14386, 14387, 14388, 14389, 14390
 14391, 14392, 14393, 14394, 14395, 14396, 14397, 14398, 14399, 14400, 14401, 14402, 14403, 14404, 14405, 14406
 14407, 14408, 14409, 14410, 14411, 14412, 14413, 14414, 14415, 14416, 14417, 14418, 14419, 14420, 14421, 14422
 14423, 14424, 14425, 14426, 14427, 14428, 14429, 14430, 14431, 14432, 14433, 14434, 14435, 14436, 14437, 14438
 14439, 14440, 14441, 14442, 14443, 14444, 14445, 14446, 14447, 14448, 14449, 14450, 14451, 14452, 14453, 14454
 14455, 14456, 14457, 14458, 14459, 14460, 14461, 14462, 14463, 14464, 14465, 14466, 14467, 14468, 14469, 14470
 14471, 14472, 14473, 14474, 14475, 14476, 14477, 14478, 14479, 14480, 14481, 14482, 14483, 14484, 14485, 14486
 14487, 14488, 14489, 14490, 14491, 14492, 14493, 14494, 14495, 14496, 14497, 14498, 14499, 14500, 14501, 14502
 14503, 14504, 14505, 14506, 14507, 14508, 14509, 14510, 14511, 14512, 14513, 14514, 14515, 14516, 14517, 14518
 14519, 14520, 14521, 14522, 14523, 14524, 14525, 14526, 14527, 14528, 14529, 14530, 14531, 14532, 14533, 14534
 14535, 14536, 14537, 14538, 14539, 14540, 14541, 14542, 14543, 14544, 14545, 14546, 14547, 14548, 14549, 14550
 14551, 14552, 14553, 14554, 14555, 14556, 14557, 14558, 14559, 14560, 14561, 14562, 14563, 14564, 14565, 14566
 14567, 14568, 14569, 14570, 14571, 14572, 14573, 14574, 14575, 14576, 14577, 14578, 14579, 14580, 14581, 14582
** ... 624 like lines cut
*Elset, elset=COMP15, instance=PART-1-1
 15063, 15064, 15065, 15066, 15067, 15068, 28299, 28300, 28301, 28302, 28303, 28304, 28305, 28306, 28307, 28308
 28309, 28310, 28311, 28312, 28313, 28314, 28315, 28316, 28317, 28318, 28319, 28320, 28321, 28322, 28323, 28324
 28325, 28326, 28327, 28328, 28329, 28330, 28331, 28332, 28333, 28334, 28335, 28336, 28337, 28338, 28339, 28340
 28341, 28342, 28343, 28344, 28345, 28346, 28347, 28348, 28349, 28350, 28351, 28352, 28353, 28354, 28355, 28356
 28357, 28358, 28359, 28360, 28361, 28362, 28363, 28364, 28365, 28366, 28367, 28368, 28369, 28370, 28371, 28372
 28373, 28374, 28375, 28376, 28377, 28378
*Elset, elset=COMP16, instance=PART-1-1
 15069, 15070, 15071, 15072, 15073, 15074, 28219, 28220, 28221, 28222, 28223, 28224, 28225, 28226, 28227, 28228
 28229, 28230, 28231, 28232, 28233, 28234, 28235, 28236, 28237, 28238, 28239, 28240, 28241, 28242, 28243, 28244
 28245, 28246, 28247, 28248, 28249, 28250, 28251, 28252, 28253, 28254, 28255, 28256, 28257, 28258, 28259, 28260
 28261, 28262, 28263, 28264, 28265, 28266, 28267, 28268, 28269, 28270, 28271, 28272, 28273, 28274, 28275, 28276
 28277, 28278, 28279, 28280, 28281, 28282, 28283, 28284, 28285, 28286, 28287, 28288, 28289, 28290, 28291, 28292
 28293, 28294, 28295, 28296, 28297, 28298
*Elset, elset=COMP17, instance=PART-1-1
 15075, 15076, 15077, 15078, 15079, 15080, 28139, 28140, 28141, 28142, 28143, 28144, 28145, 28146, 28147, 28148
 28149, 28150, 28151, 28152, 28153, 28154, 28155, 28156, 28157, 28158, 28159, 28160, 28161, 28162, 28163, 28164
 28165, 28166, 28167, 28168, 28169, 28170, 28171, 28172, 28173, 28174, 28175, 28176, 28177, 28178, 28179, 28180
 28181, 28182, 28183, 28184, 28185, 28186, 28187, 28188, 28189, 28190, 28191, 28192, 28193, 28194, 28195, 28196
 28197, 28198, 28199, 28200, 28201, 28202, 28203, 28204, 28205, 28206, 28207, 28208, 28209, 28210, 28211, 28212
 28213, 28214, 28215, 28216, 28217, 28218
*Elset, elset=COMP18, instance=PART-1-1
 15081, 15082, 15083, 15084, 15085, 15086, 28059, 28060, 28061, 28062, 28063, 28064, 28065, 28066, 28067, 28068
 28069, 28070, 28071, 28072, 28073, 28074, 28075, 28076, 28077, 28078, 28079, 28080, 28081, 28082, 28083, 28084
 28085, 28086, 28087, 28088, 28089, 28090, 28091, 28092, 28093, 28094, 28095, 28096, 28097, 28098, 28099, 28100
 28101, 28102, 28103, 28104, 28105, 28106, 28107, 28108, 28109, 28110, 28111, 28112, 28113, 28114, 28115, 28116
 28117, 28118, 28119, 28120, 28121, 28122, 28123, 28124, 28125, 28126, 28127, 28128, 28129, 28130, 28131, 28132
 28133, 28134, 28135, 28136, 28137, 28138
*Elset, elset=COMP19, instance=PART-1-1
 15087, 15088, 15089, 15090, 15091, 15092, 27979, 27980, 27981, 27982, 27983, 27984, 27985, 27986, 27987, 27988
 27989, 27990, 27991, 27992, 27993, 27994, 27995, 27996, 27997, 27998, 27999, 28000, 28001, 28002, 28003, 28004
 28005, 28006, 28007, 28008, 28009, 28010, 28011, 28012, 28013, 28014, 28015, 28016, 28017, 28018, 28019, 28020
 28021, 28022, 28023, 28024, 28025, 28026, 28027, 28028, 28029, 28030, 28031, 28032, 28033, 28034, 28035, 28036
 28037, 28038, 28039, 28040, 28041, 28042, 28043, 28044, 28045, 28046, 28047, 28048, 28049, 28050, 28051, 28052
 28053, 28054, 28055, 28056, 28057, 28058
*Elset, elset=COMP20, instance=PART-1-1
 15093, 15094, 15095, 15096, 15097, 15098, 27899, 27900, 27901, 27902, 27903, 27904, 27905, 27906, 27907, 27908
 27909, 27910, 27911, 27912, 27913, 27914, 27915, 27916, 27917, 27918, 27919, 27920, 27921, 27922, 27923, 27924
 27925, 27926, 27927, 27928, 27929, 27930, 27931, 27932, 27933, 27934, 27935, 27936, 27937, 27938, 27939, 27940
 27941, 27942, 27943, 27944, 27945, 27946, 27947, 27948, 27949, 27950, 27951, 27952, 27953, 27954, 27955, 27956
 27957, 27958, 27959, 27960, 27961, 27962, 27963, 27964, 27965, 27966, 27967, 27968, 27969, 27970, 27971, 27972
 27973, 27974, 27975, 27976, 27977, 27978
*Elset, elset=COMP21, instance=PART-1-1
 15099, 15100, 15101, 15102, 15103, 15104, 15105, 15106, 15107, 15108, 15109, 15110, 15111, 15112, 15113, 15114
 15115, 15116, 15117, 15118, 15119, 15120, 15121, 15122, 15123, 15124, 15125, 15126, 15127, 15128, 15129, 15130
 15131, 15132, 15133, 15134, 15135, 15136, 15137, 15138, 15139, 15140, 15141, 15142, 15143, 15144, 15145, 15146
 15147, 15148, 15149, 15150, 15151, 15152, 15153, 15154, 15155, 15156, 15157, 15158, 15159, 15160, 15161, 15162
 15163, 15164, 15165, 15166, 15167, 15168, 15169, 15170, 15171, 15172, 15173, 15174, 15175, 15176, 15177, 15178
 15179, 15180, 15181, 15182, 15183, 15184, 15185, 15186, 15187, 15188, 15189, 15190, 15191, 15192, 15193, 15194
 15195, 15196, 15197, 15198, 15199, 15200, 15201, 15202, 15203, 15204, 15205, 15206, 15207, 15208, 15209, 15210
 15211, 15212, 15213, 15214, 15215, 15216, 15217, 15218, 15219, 15220, 15221, 15222, 15223, 15224, 15225, 15226
 15227, 15228, 15229, 15230, 15231, 15232, 15233, 15234, 15235, 15236, 15237, 15238, 15239, 15240, 15241, 15242
 15243, 15244, 15245, 15246, 15247, 15248, 15249, 15250, 15251, 15252, 15253, 15254, 15255, 15256, 15257, 15258
 15259, 15260, 15261, 15262, 15263, 15264, 15265, 15266, 15267, 15268, 15269, 15270, 15271, 15272, 15273, 15274
 15275, 15276, 15277, 15278, 15279, 15280, 15281, 15282, 15283, 15284, 15285, 15286, 15287, 15288, 15289, 15290
 15291, 15292, 15293, 15294, 15295, 15296, 15297, 15298, 15299, 15300, 15301, 15302, 15303, 15304, 15305, 15306
 15307, 15308, 15309, 15310, 15311, 15312, 15313, 15314, 15315, 15316, 15317, 15318, 15319, 15320, 15321, 15322
 15323, 15324, 15325, 15326, 15327, 15328, 15329, 15330, 15331, 15332, 15333, 15334, 15335, 15336, 15337, 15338
 15339, 15340, 15341, 15342, 15343, 15344, 15345, 15346, 15347, 15348, 15349, 15350, 15351, 15352, 15353, 15354
 15355, 15356, 15357, 15358, 15359, 15360, 15361, 15362, 15363, 15364, 15365, 15366, 15367, 15368, 15369, 15370
 15371, 15372, 15373, 15374, 15375, 15376, 15377, 15378, 15379, 15380, 15381, 15382, 15383, 15384, 15385, 15386
 15387, 15388, 15389, 15390, 15391, 15392, 15393, 15394, 15395, 15396, 15397, 15398, 15399, 15400, 15401, 15402
 15403, 15404, 15405, 15406, 15407, 15408, 15409, 15410, 15411, 15412, 15413, 15414, 15415, 15416, 15417, 15418
** ... 730 like lines cut
*Elset, elset=COMP22, instance=PART-1-1
 15899, 15900, 15901, 15902, 15903, 15904, 15905, 15906, 15907, 15908, 15909, 15910, 15911, 15912, 15913, 15914
 15915, 15916, 15917, 15918, 15919, 15920, 15921, 15922, 15923, 15924, 15925, 15926, 15927, 15928, 15929, 15930
 15931, 15932, 15933, 15934, 15935, 15936, 15937, 15938, 15939, 15940, 15941, 15942, 15943, 15944, 15945, 15946
 15947, 15948, 15949, 15950, 15951, 15952, 15953, 15954, 15955, 15956, 15957, 15958, 15959, 15960, 15961, 15962
 15963, 15964, 15965, 15966, 15967, 15968, 15969, 15970, 15971, 15972, 15973, 15974, 15975, 15976, 15977, 15978
 16379, 16380, 16381, 16382, 16383, 16384, 16385, 16386, 16387, 16388, 16389, 16390, 16391, 16392, 16393, 16394
 16395, 16396, 16397, 16398, 16399, 16400, 16401, 16402, 16403, 16404, 16405, 16406, 16407, 16408, 16409, 16410
 16411, 16412, 16413, 16414, 16415, 16416, 16417, 16418, 16419, 16420, 16421, 16422, 16423, 16424, 16425, 16426
 16427, 16428, 16429, 16430, 16431, 16432, 16433, 16434, 16435, 16436, 16437, 16438, 16439, 16440, 16441, 16442
 16443, 16444, 16445, 16446, 16447, 16448, 16449, 16450, 16451, 16452, 16453, 16454, 16455, 16456, 16457, 16458
 16459, 16460, 16461, 16462, 16463, 16464, 16465, 16466, 16467, 16468, 16469, 16470, 16471, 16472, 16473, 16474
 16475, 16476, 16477, 16478, 16479, 16480, 16481, 16482, 16483, 16484, 16485, 16486, 16487, 16488, 16489, 16490
 16491, 16492, 16493, 16494, 16495, 16496, 16497, 16498, 16499, 16500, 16501, 16502, 16503, 16504, 16505, 16506
 16507, 16508, 16509, 16510, 16511, 16512, 16513, 16514, 16515, 16516, 16517, 16518, 16519, 16520, 16521, 16522
 16523, 16524, 16525, 16526, 16527, 16528, 16529, 16530, 16531, 16532, 16533, 16534, 16535, 16536, 16537, 16538
 16539, 16540, 16541, 16542, 16543, 16544, 16545, 16546, 16547, 16548, 16549, 16550, 16551, 16552, 16553, 16554
 16555, 16556, 16557, 16558, 16559, 16560, 16561, 16562, 16563, 16564, 16565, 16566, 16567, 16568, 16569, 16570
 16571, 16572, 16573, 16574, 16575, 16576, 16577, 16578, 16579, 16580, 16581, 16582, 16583, 16584, 16585, 16586
 16587, 16588, 16589, 16590, 16591, 16592, 16593, 16594, 16595, 16596, 16597, 16598, 16599, 16600, 16601, 16602
 16603, 16604, 16605, 16606, 16607, 16608, 16609, 16610, 16611, 16612, 16613, 16614, 16615, 16616, 16617, 16618
** ... 5 like lines cut
*Elset, elset=COMP23, instance=PART-1-1, generate
 15979,  16378,      1
*Nset, nset=END1, instance=PART-1-1
  1250,  1251,  1252,  1253,  1254,  1255,  1256,  1257,  1258,  1259,  1260,  1261,  1262,  1263,  1264,  1265
  1266,  1267,  1268,  1269,  1270,  2092,  2093,  2175,  2176,  2177, 15233, 15234, 15235, 15236, 15237, 15238
 15239, 15240, 15241, 15242, 15243, 15244, 15245, 15246, 15247, 15248, 15249, 15250, 15251, 15252, 17478, 17479
 17480, 17949, 17950, 17951, 20409, 20410, 20411, 20412, 20413, 20414, 20415, 20416, 20417, 20418, 20419, 20420
 20421, 20422, 20423, 20424, 20425, 20426, 20427, 20428, 21209, 21210, 21211, 21212, 21213, 21214, 21215, 21216
 21217, 21218, 21219, 21220, 21221, 21222, 21223, 21224, 21225, 21226, 21227, 21969, 21970, 21971, 21972, 21973
 21974, 21975, 21976, 21977, 21978, 21979, 21980, 21981, 21982, 21983, 21984, 21985, 21986, 21987, 21988, 28892
 28893, 29092, 29093, 29094, 29332, 29333, 29334, 29572, 29573, 29574, 29575, 29576, 29577, 29578, 29579, 29580
 29581, 29582, 29583, 29584, 29585, 29586, 29587, 29588, 29589, 29590, 30332, 30333, 30334, 30335, 30336, 30337
 30338, 30339, 30340, 30341, 30342, 30343, 30344, 30345, 30346, 30347, 30348, 30349, 30350, 31092, 31093, 31094
 31095, 31096, 31097, 31098, 31099, 31100, 31101, 31102, 31103, 31104, 31105, 31106, 31107, 31108, 31109, 31110
 46850, 46851, 46852, 46853, 46854, 46855, 46856, 46857, 46858, 46859, 46860, 46861, 46862, 46863, 46864, 46865
 46866, 46867, 46868, 46869, 47650, 47651, 47652, 47653, 47654, 47655, 47656, 47657, 47658, 47659, 47660, 47661
 47662, 47663, 47664, 47665, 47666, 47667, 47668, 50984, 50985, 50986, 51455, 51456, 51457, 51926, 51927, 51928
 54269, 54270, 54271, 54272, 54273, 54274, 54275, 54276, 54277, 54278, 54279, 54280, 54281, 54282, 54283, 54284
 54285, 54286, 54287, 55029, 55030, 55031, 55032, 55033, 55034, 55035, 55036, 55037, 55038, 55039, 55040, 55041
 55042, 55043, 55044, 55045, 55046, 55047, 55789, 55790, 55791, 55792, 55793, 55794, 55795, 55796, 55797, 55798
 55799, 55800, 55801, 55802, 55803, 55804, 55805, 55806, 55807, 56549, 56550, 56551, 56552, 56553, 56554, 56555
 56556, 56557, 56558, 56559, 56560, 56561, 56562, 56563, 56564, 56565, 56566, 56567
*Nset, nset=END2, instance=PART-1-1
    41,    42,    43,    44,    45,    46,    47,    48,    49,    50,    51,    52,    53,    54,    55,    56
    57,    58,    59,    60,    61,   903,   904,   986,   987,   988,  1109,  1110,  1111, 16126, 16127, 16128
 16129, 16130, 16131, 16132, 16133, 16134, 16135, 16136, 16137, 16138, 16139, 16140, 16141, 16142, 16143, 16144
 16145, 16146, 16966, 16967, 17046, 17047, 17048, 25109, 25110, 25111, 25112, 25113, 25114, 25115, 25116, 25117
 25118, 25119, 25120, 25121, 25122, 25123, 25124, 25125, 25126, 25127, 25128, 25909, 25910, 25911, 25912, 25913
 25914, 25915, 25916, 25917, 25918, 25919, 25920, 25921, 25922, 25923, 25924, 25925, 25926, 25927, 28972, 28973
 28974, 29212, 29213, 29214, 29452, 29453, 29454, 33594, 33595, 33596, 33597, 33598, 33599, 33600, 33601, 33602
 33603, 33604, 33605, 33606, 33607, 33608, 33609, 33610, 33611, 33612, 34354, 34355, 34356, 34357, 34358, 34359
 34360, 34361, 34362, 34363, 34364, 34365, 34366, 34367, 34368, 34369, 34370, 34371, 34372, 35114, 35115, 35116
 35117, 35118, 35119, 35120, 35121, 35122, 35123, 35124, 35125, 35126, 35127, 35128, 35129, 35130, 35131, 35132
 35874, 35875, 35876, 35877, 35878, 35879, 35880, 35881, 35882, 35883, 35884, 35885, 35886, 35887, 35888, 35889
 35890, 35891, 35892, 35893, 39416, 39417, 39418, 39887, 39888, 39889, 42230, 42231, 42232, 42233, 42234, 42235
 42236, 42237, 42238, 42239, 42240, 42241, 42242, 42243, 42244, 42245, 42246, 42247, 42248, 42990, 42991, 42992
 42993, 42994, 42995, 42996, 42997, 42998, 42999, 43000, 43001, 43002, 43003, 43004, 43005, 43006, 43007, 43008
 43750, 43751, 43752, 43753, 43754, 43755, 43756, 43757, 43758, 43759, 43760, 43761, 43762, 43763, 43764, 43765
 43766, 43767, 43768, 59532, 59533, 59534, 59535, 59536, 59537, 59538, 59539, 59540, 59541, 59542, 59543, 59544
 59545, 59546, 59547, 59548, 59549, 59550, 60292, 60293, 60294, 60295, 60296, 60297, 60298, 60299, 60300, 60301
 60302, 60303, 60304, 60305, 60306, 60307, 60308, 60309, 60310, 61052, 61053, 61054, 61055, 61056, 61057, 61058
 61059, 61060, 61061, 61062, 61063, 61064, 61065, 61066, 61067, 61068, 61069, 61070
*Nset, nset=_PickedSet33, internal
 1,
*Nset, nset=_PickedSet34, internal
 2,
*Nset, nset=_PickedSet35, internal
 1,
*Nset, nset=_PickedSet36, internal
 2,
*Surface, type=NODE, name=END1_CNS_, internal
END1, 1.
*Surface, type=NODE, name=END2_CNS_, internal
END2, 1.
** Constraint: Constraint-1
*Coupling, constraint name=Constraint-1, ref node=_PickedSet35, surface=END1_CNS_
*Kinematic
** Constraint: Constraint-2
*Coupling, constraint name=Constraint-2, ref node=_PickedSet36, surface=END2_CNS_
*Kinematic
*End Assembly
*Amplitude, name=A_1s, definition=SMOOTH STEP
             0.,              0.,              1.,              1.
** 
** MATERIALS
** 
** HMNAME MATS          1 steel     4
*Material, name=STEEL
*Density
 7.85e-09,
*Elastic
206000., 0.3
*Plastic
345.,0.
** ----------------------------------------------------------------
** 
** STEP: Step-1
** 
*Step, name=Step-1, nlgeom=NO
*Static
1., 1., 1e-05, 1.
** 
** BOUNDARY CONDITIONS
** 
** Name: BC-1 Type: Displacement/Rotation
*Boundary
_PickedSet33, 1, 1
_PickedSet33, 2, 2
_PickedSet33, 3, 3
_PickedSet33, 4, 4
_PickedSet33, 5, 5
_PickedSet33, 6, 6, 0.0012
** Name: BC-2 Type: Displacement/Rotation
*Boundary
_PickedSet34, 1, 1
_PickedSet34, 2, 2
_PickedSet34, 3, 3
_PickedSet34, 4, 4
_PickedSet34, 5, 5
_PickedSet34, 6, 6, -0.0012
** 
** OUTPUT REQUESTS
** 
*Restart, write, number interval=1, time marks=NO
** 
** FIELD OUTPUT: F-Output-1
** 
*Output, field, variable=PRESELECT, number interval=50, time marks=NO
** 
** HISTORY OUTPUT: H-Output-1
** 
*Output, history, variable=PRESELECT, number interval=200, time marks=NO
*End Step
