*Heading
** Job name: Job-iga Model name: fangban-345-5mm6mm-gongzhuang-Copy
** Generated by: Abaqus/CAE 2024
*Preprint, echo=NO, model=NO, history=NO, contact=NO
**
** PARTS
**
*Part, name=Part-6
*Node
      1,         325.,         -50.,        -900.
      2,         325.,           0.,        -850.
      3,         325.,           0.,        -900.
      4,          75.,         -50.,        -900.
      5,          75.,           0.,        -850.
      6,          75.,           0.,        -900.
      7,         -75.,         -50.,        -900.
      8,         -75.,           0.,        -850.
      9,         -75.,           0.,        -900.
     10,         -75.,         -50.,           0.
     11,         -75.,           0.,         -50.
     12,         -75.,           0.,           0.
     13,          75.,         -50.,           0.
     14,          75.,           0.,         -50.
     15,          75.,           0.,           0.
     16,         325.,         -50.,           0.
     17,         325.,           0.,         -50.
     18,         325.,           0.,           0.
     19,        -325.,          50.,        -900.
     20,        -325.,           0.,        -850.
** ... 15581 like lines cut
*Element, type=S4R
 1,   82,   83, 1981, 1978
 2,   83,    1,   69, 1981
 3, 1978, 1981, 1982, 1977
 4, 1981,   69,   70, 1982
 5, 1977, 1982, 1983, 1976
 6, 1982,   70,   71, 1983
 7, 1976, 1983, 1975, 1974
 8, 1983,   71,   72, 1975
 9,   72,   73, 1984, 1975
10,   73,   74, 1985, 1984
11,   74,    2,   75, 1985
12, 1975, 1984, 1980, 1974
13, 1984, 1985, 1979, 1980
14, 1985,   75,   76, 1979
15,   76,   77, 1986, 1979
16,   77,   78, 1987, 1986
17,   78,   79, 1988, 1987
18,   79,    3,   80, 1988
19, 1979, 1986, 1989, 1980
20, 1986, 1987, 1990, 1989
** ... 15389 like lines cut
*Nset, nset=Set-9
    33,    34,    35,    36,    45,    48,    49,    52,    58,    60,    61,    64,   297,   298,   299,   300
   301,   302,   303,   304,   305,   344,   345,   346,   347,   348,   349,   350,   351,   352,   714,   715
   716,   717,   718,   719,   720,   721,   722,   723,   724,   725,   726,   727,   728,   729,   730,   731
   983,   984,   985,   986,   987,   988,   989,   990,   991,   992,   993,   994,   995,   996,   997,   998
   999,  1000,  1001,  1002,  1003,  1004,  1005,  1006,  1007,  1008,  1009,  1010,  1011,  1012,  1013,  1014
  1015,  1016,  1017,  1078,  1079,  1080,  1081,  1082,  1083,  1084,  1085,  1086,  1087,  1088,  1089,  1090
  1091,  1165,  1166,  1167,  1168,  1169,  1170,  1171,  1172,  1173,  1174,  1175,  1176,  1177,  1178,  1179
  1180,  1181,  1182,  1183,  1184,  1185,  1186,  1187,  1188,  1189,  1190,  1191,  1192,  1193,  1194,  1195
  1196,  1197,  1198,  1199,  1224,  1225,  1226,  1227,  1228,  1229,  1230,  1231,  1232,  1233,  1234,  1235
  1236,  1237,  1238,  1239,  1240,  1241,  1242,  1243,  1244,  1245,  1246,  1247,  1248,  1249,  1250,  1251
  1252,  1253,  1254,  1255,  1256,  1257,  1258,  1259,  1395,  1396,  1397,  1398,  1399,  1400,  1401,  1402
  1403,  1404,  1405,  1406,  1407,  1408,  1409,  1410,  1411,  1412,  1413,  1414,  1415,  1416,  1417,  1418
  1419,  1420,  1421,  1422,  1423,  1424,  1425,  1426,  1427,  1428,  1429,  1430,  1506,  1507,  1508,  1509
  1510,  1511,  1512,  1513,  1514,  1515,  1516,  1517,  1518,  1519,  1663,  1664,  1665,  1666,  1667,  1668
  1669,  1670,  1671,  1672,  1673,  1674,  1675,  1676,  1677,  1678,  1679,  1680,  1681,  1682,  1683,  1684
  1685,  1686,  1687,  1688,  1689,  1690,  1691,  1692,  1693,  1694,  1695,  1696,  1697,  1698,  1699,  1700
  1701,  1702,  1703,  1704,  1705,  1706,  1707,  1708,  1709,  1710,  1711,  1712,  1713,  1714,  1715,  1716
  1717,  1718,  1719,  1720,  1721,  1722,  1723,  1724,  1725,  1726,  1727,  1728,  1729,  1730,  1731,  1732
  1733,  1734,  1735,  1736,  1737,  1738,  1739,  1740,  1741,  1742,  1743,  1744,  1745,  1746,  1747,  1748
  1749,  1750,  1751,  1752,  1753,  1754,  1755,  1756,  1757,  1758,  1759,  1760,  1761,  1762,  1763,  1764
** ... 103 like lines cut
*Elset, elset=Set-9
 11238, 11239, 11240, 11241, 11242, 11243, 11244, 11245, 11246, 11247, 11248, 11249, 11250, 11251, 11252, 11253
 11254, 11255, 11256, 11257, 11258, 11259, 11260, 11261, 11262, 11263, 11264, 11265, 11266, 11267, 11268, 11269
 11270, 11271, 11272, 11273, 11274, 11275, 11276, 11277, 11278, 11279, 11280, 11281, 11282, 11283, 11284, 11285
 11286, 11287, 11288, 11289, 11290, 11291, 11292, 11293, 11294, 11295, 11296, 11297, 11298, 11299, 11300, 11301
 11302, 11303, 11304, 11305, 11306, 11307, 11308, 11309, 11310, 11311, 11312, 11313, 11314, 11315, 11316, 11317
 11318, 11319, 11320, 11321, 11322, 11323, 11324, 11325, 11326, 11327, 11328, 11329, 11330, 11331, 11332, 11333
 11334, 11335, 11336, 11337, 11338, 11339, 11340, 11341, 11342, 11343, 11344, 11345, 11346, 11347, 11348, 11349
 11350, 11351, 11352, 11353, 11354, 11355, 11356, 11357, 11358, 11359, 11360, 11361, 11362, 11363, 11364, 11365
 11366, 11367, 11368, 11369, 11370, 11371, 11372, 11373, 11374, 11375, 11376, 11377, 11378, 11379, 11380, 11381
 11382, 11383, 11384, 11385, 11386, 11387, 11388, 11389, 11390, 11391, 11392, 11393, 11394, 11395, 11396, 11397
 11398, 11399, 11400, 11401, 11402, 11403, 11404, 11405, 11406, 11407, 11408, 11409, 11410, 11411, 11412, 11413
 11414, 11415, 11416, 11417, 11418, 11419, 11420, 11421, 11422, 11423, 11424, 11425, 11426, 11427, 11428, 11429
 11430, 11431, 11432, 11433, 11434, 11435, 11436, 11437, 11438, 11439, 11440, 11441, 11442, 11443, 11444, 11445
 11446, 11447, 11448, 11449, 11450, 11451, 11452, 11453, 11454, 11455, 11456, 11457, 11458, 11459, 11460, 11461
 11462, 11463, 11464, 11465, 11466, 11467, 11468, 11469, 11470, 11471, 11472, 11473, 11474, 11475, 11476, 11477
 11478, 11479, 11480, 11481, 11482, 11483, 11484, 11485, 11486, 11487, 11488, 11489, 11490, 11491, 11492, 11493
 11494, 11495, 11496, 11497, 11498, 11499, 11500, 11501, 11502, 11503, 11504, 11505, 11506, 11507, 11508, 11509
 11510, 11511, 11512, 11513, 11514, 11515, 11516, 11517, 11518, 11519, 11520, 11521, 11522, 11523, 11524, 11525
 11526, 11527, 11528, 11529, 11530, 11531, 11532, 11533, 11534, 11535, 11536, 11537, 11538, 11539, 11540, 11541
 11542, 11543, 11544, 11545, 11546, 11547, 11548, 11549, 11550, 11551, 11552, 11553, 11554, 11555, 11556, 11557
** ... 90 like lines cut
*Nset, nset=Set-10
    37,    38,    53,    55,    57,    59,   264,   265,   266,   267,   268,   269,   270,   271,   272,   705
   706,   707,   708,   709,   710,   711,   712,   713,  1018,  1019,  1020,  1021,  1022,  1023,  1024,  1025
  1026,  1027,  1028,  1029,  1030,  1031,  1032,  1033,  1034,  1035,  1036,  1037,  1038,  1039,  1040,  1041
  1042,  1043,  1044,  1045,  1046,  1047,  1048,  1049,  1050,  1051,  1052,  1092,  1093,  1094,  1095,  1096
  1097,  1098,  1099,  1100,  1101,  1102,  1103,  1104,  1105,  1851,  1852,  1853,  1854,  1855,  1856,  1857
  1858,  1859,  1860,  1861,  1862,  1863,  1864,  1865,  1866,  1867,  1868,  1869,  1870,  1871,  1872,  1873
  1874,  1875,  1876,  1877,  1878,  1879,  1880,  1881,  1882,  1883,  1884,  1885,  1886,  1887,  1888,  1889
  1890,  1891,  1892,  1893,  1894,  1895,  1896,  1897,  1898,  1899,  1900,  1901,  1902,  1903,  1904,  1905
  1906,  1907,  1908,  1909,  1910,  1911,  1912,  1913,  1914,  1915,  1916,  1917,  1918,  1919,  1920,  1921
  1922,  1923,  1924,  1925,  1926,  1927,  1928,  1929,  1930,  1931,  1932,  1933,  1934,  1935,  1936,  1937
  1938,  1939,  1940,  1941,  1942,  1943,  1944,  1945,  1946,  1947,  1948,  1949,  1950,  1951,  1952,  1953
  1954,  1955,  1956,  1957,  1958,  1959,  1960,  1961,  1962,  1963,  1964,  1965,  1966,  1967,  1968,  1969
  1970,  1971,  1972,  1973, 13926, 13927, 13928, 13929, 13930, 13931, 13932, 13933, 13934, 13935, 13936, 13937
 13938, 13939, 13940, 13941, 13942, 13943, 13944, 13945, 13946, 13947, 13948, 13949, 13950, 13951, 13952, 13953
 13954, 13955, 13956, 13957, 13958, 13959, 13960, 13961, 13962, 13963, 13964, 13965, 13966, 13967, 13968, 13969
 13970, 13971, 13972, 13973, 13974, 13975, 13976, 13977, 13978, 13979, 13980, 13981, 13982, 13983, 13984, 13985
 13986, 13987, 13988, 13989, 13990, 13991, 13992, 13993, 13994, 13995, 13996, 13997, 13998, 13999, 14000, 14001
 14002, 14003, 14004, 14005, 14006, 14007, 14008, 14009, 14010, 14011, 14012, 14013, 14014, 14015, 14016, 14017
 14018, 14019, 14020, 14021, 14022, 14023, 14024, 14025, 14026, 14027, 14028, 14029, 14030, 14031, 14032, 14033
 14034, 14035, 14036, 14037, 14038, 14039, 14040, 14041, 14042, 14043, 14044, 14045, 14046, 14047, 14048, 14049
** ... 42 like lines cut
*Elset, elset=Set-10, generate
 13568,  14447,      1
*Nset, nset=Set-11
    41,    43,    46,    51,    62,    63,   376,   377,   378,   379,   380,   381,   382,   383,   384,   623
   624,   625,   626,   627,   628,   629,   630,   631,  1130,  1131,  1132,  1133,  1134,  1135,  1136,  1137
  1138,  1139,  1140,  1141,  1142,  1143,  1144,  1145,  1146,  1147,  1148,  1149,  1150,  1151,  1152,  1153
  1154,  1155,  1156,  1157,  1158,  1159,  1160,  1161,  1162,  1163,  1164,  1260,  1261,  1262,  1263,  1264
  1265,  1266,  1267,  1268,  1269,  1270,  1271,  1272,  1273,  1274,  1275,  1276,  1277,  1278,  1279,  1280
  1281,  1282,  1283,  1284,  1285,  1286,  1287,  1288,  1289,  1290,  1291,  1292,  1293,  1294,  1295,  1562
  1563,  1564,  1565,  1566,  1567,  1568,  1569,  1570,  1571,  1572,  1573,  1574,  1575,  1576,  1577,  1578
  1579,  1580,  1581,  1582,  1583,  1584,  1585,  1586,  1587,  1588,  1589,  1590,  1591,  1592,  1593,  1594
  1595,  1596,  1597,  1598,  1599,  1600,  1601,  1602,  1603,  1604,  1605,  1606,  1607,  1608,  1609,  1610
  1611,  1612,  1613,  1614,  1615,  1616,  1617,  1618,  1619,  1620,  1621,  1622,  1623,  1624,  1625,  1626
  1627,  1628,  1629,  1630,  1631,  1632,  1633,  1634,  1635,  1636,  1637,  1638,  1639,  1640,  1641,  1642
  1643,  1644,  1645,  1646,  1647,  1648,  1649,  1650,  1651,  1652,  1653,  1654,  1655,  1656,  1657,  1658
  1659,  1660,  1661,  1662, 11073, 11074, 11075, 11076, 11077, 11078, 11079, 11080, 11081, 11082, 11083, 11084
 11085, 11086, 11087, 11088, 11089, 11090, 11091, 11092, 11093, 11094, 11095, 11096, 11097, 11098, 11099, 11100
 11101, 11102, 11103, 11104, 11105, 11106, 11107, 11108, 11109, 11110, 11111, 11112, 11113, 11114, 11115, 11116
 11117, 11118, 11119, 11120, 11121, 11122, 11123, 11124, 11125, 11126, 11127, 11128, 11129, 11130, 11131, 11132
 11133, 11134, 11135, 11136, 11137, 11138, 11139, 11140, 11141, 11142, 11143, 11144, 11145, 11146, 11147, 11148
 11149, 11150, 11151, 11152, 11153, 11154, 11155, 11156, 11157, 11158, 11159, 11160, 11161, 11162, 11163, 11164
 11165, 11166, 11167, 11168, 11169, 11170, 11171, 11172, 11173, 11174, 11175, 11176, 11177, 11178, 11179, 11180
 11181, 11182, 11183, 11184, 11185, 11186, 11187, 11188, 11189, 11190, 11191, 11192, 11193, 11194, 11195, 11196
** ... 42 like lines cut
*Elset, elset=Set-11, generate
 10358,  11237,      1
*Nset, nset=Set-12
     2,     3,     5,     6,     8,     9,    11,    12,    14,    15,    17,    18,    20,    21,    25,    26
    34,    36,    38,    41,    45,    46,    49,    53,    57,    58,    59,    60,    61,    62,    63,    64
    65,    66,    67,    68,    75,    76,    77,    78,    79,    90,    91,    92,   103,   104,   105,   116
   117,   118,   129,   130,   131,   142,   143,   144,   145,   146,   158,   159,   160,   161,   162,   163
   194,   195,   196,   197,   198,   273,   274,   275,   276,   277,   278,   279,   280,   281,   282,   283
   284,   285,   286,   287,   288,   289,   290,   291,   292,   293,   294,   295,   296,   306,   307,   308
   309,   310,   311,   312,   313,   314,   315,   316,   317,   318,   319,   320,   321,   322,   323,   324
   325,   326,   327,   328,   329,   330,   331,   332,   333,   334,   335,   336,   337,   338,   339,   340
   341,   342,   343,   353,   354,   355,   356,   357,   358,   359,   360,   361,   362,   363,   364,   365
   366,   367,   368,   369,   370,   371,   372,   373,   374,   375,   611,   612,   613,   614,   615,   616
   617,   618,   619,   620,   621,   622,   632,   633,   634,   635,   636,   637,   638,   639,   640,   641
   642,   643,   644,   645,   646,   647,   648,   649,   650,   651,   652,   653,   654,   655,   656,   657
   658,   659,   660,   661,   662,   663,   664,   665,   666,   667,   668,   669,   670,   671,   672,   673
   674,   675,   676,   677,   678,   679,   680,   681,   682,   683,   684,   685,   686,   687,   688,   689
   690,   691,   692,   693,   694,   695,   696,   697,   698,   699,   700,   701,   702,   703,   704,   958
   959,   960,   961,   962,   963,   964,   965,   966,   967,   968,   969,   970,   971,   972,   973,   974
   975,   976,   977,   978,   979,   980,   981,   982,   983,   984,   985,   986,   987,   988,   989,   990
   991,   992,   993,   994,   995,   996,   997,   998,   999,  1000,  1001,  1002,  1003,  1004,  1005,  1006
  1007,  1008,  1009,  1010,  1011,  1012,  1013,  1014,  1015,  1016,  1017,  1018,  1019,  1020,  1021,  1022
  1023,  1024,  1025,  1026,  1027,  1028,  1029,  1030,  1031,  1032,  1033,  1034,  1035,  1036,  1037,  1038
** ... 486 like lines cut
*Elset, elset=Set-12
  4019,  4020,  4021,  4022,  4023,  4024,  4025,  4026,  4027,  4028,  4029,  4030,  4031,  4032,  4033,  4034
  4035,  4036,  4037,  4038,  4039,  4040,  4041,  4042,  4043,  4044,  4045,  4046,  4047,  4048,  4049,  4050
  4051,  4052,  4053,  4054,  4055,  4056,  4057,  4058,  4059,  4060,  4061,  4062,  4063,  4064,  4065,  4066
  4067,  4068,  4069,  4070,  4071,  4072,  4073,  4074,  4075,  4076,  4077,  4078,  4079,  4080,  4081,  4082
  4083,  4084,  4085,  4086,  4087,  4088,  4089,  4090,  4091,  4092,  4093,  4094,  4095,  4096,  4097,  4098
  4099,  4100,  4101,  4102,  4103,  4104,  4105,  4106,  4107,  4108,  4109,  4110,  4111,  4112,  4113,  4114
  4115,  4116,  4117,  4118,  4119,  4120,  4121,  4122,  4123,  4124,  4125,  4126,  4127,  4128,  4129,  4130
  4131,  4132,  4133,  4134,  4135,  4136,  4137,  4138,  4139,  4140,  4141,  4142,  4143,  4144,  4145,  4146
  4147,  4148,  4149,  4150,  4151,  4152,  4153,  4154,  4155,  4156,  4157,  4158,  4159,  4160,  4161,  4162
  4163,  4164,  4165,  4166,  4167,  4168,  4169,  4170,  4171,  4172,  4173,  4174,  4175,  4176,  4177,  4178
  4179,  4180,  4181,  4182,  4183,  4184,  4185,  4186,  4187,  4188,  4189,  4190,  4191,  4192,  4193,  4194
  4195,  4196,  4197,  4198,  4199,  4200,  4201,  4202,  4203,  4204,  4205,  4206,  4207,  4208,  4209,  4210
  4211,  4212,  4213,  4214,  4215,  4216,  4217,  4218,  4219,  4220,  4221,  4222,  4223,  4224,  4225,  4226
  4227,  4228,  4229,  4230,  4231,  4232,  4233,  4234,  4235,  4236,  4237,  4238,  4239,  4240,  4241,  4242
  4243,  4244,  4245,  4246,  4247,  4248,  4249,  4250,  4251,  4252,  4253,  4254,  4255,  4256,  4257,  4258
  4259,  4260,  4261,  4262,  4263,  4264,  4265,  4266,  4267,  4268,  4269,  4270,  4271,  4272,  4273,  4274
  4275,  4276,  4277,  4278,  4279,  4280,  4281,  4282,  4283,  4284,  4285,  4286,  4287,  4288,  4289,  4290
  4291,  4292,  4293,  4294,  4295,  4296,  4297,  4298,  4299,  4300,  4301,  4302,  4303,  4304,  4305,  4306
  4307,  4308,  4309,  4310,  4311,  4312,  4313,  4314,  4315,  4316,  4317,  4318,  4319,  4320,  4321,  4322
  4323,  4324,  4325,  4326,  4327,  4328,  4329,  4330,  4331,  4332,  4333,  4334,  4335,  4336,  4337,  4338
** ... 472 like lines cut
*Nset, nset=Set-5
    1,    3,    4,    6,    7,    9,   10,   12,   13,   15,   16,   18,   19,   21,   22,   23
   24,   26,   27,   28,   29,   30,   31,   32,   33,   34,   35,   36,   37,   38,   39,   40
   41,   42,   43,   44,   45,   46,   47,   48,   49,   50,   51,   52,   53,   54,   55,   56
   80,   81,   82,   83,   93,   94,   95,   96,  106,  107,  108,  109,  119,  120,  121,  122
  132,  133,  134,  135,  147,  148,  149,  150,  164,  165,  166,  167,  174,  175,  176,  177
  184,  185,  186,  187,  199,  200,  201,  202,  209,  210,  211,  212,  219,  220,  221,  222
  229,  230,  231,  232,  239,  240,  241,  242,  249,  250,  251,  252,  260,  261,  262,  263
  264,  265,  266,  267,  268,  269,  270,  271,  272,  273,  274,  275,  276,  277,  278,  279
  280,  281,  282,  283,  284,  285,  286,  287,  288,  289,  290,  291,  292,  293,  294,  295
  296,  297,  298,  299,  300,  301,  302,  303,  304,  305,  306,  307,  308,  309,  310,  311
  312,  313,  314,  315,  316,  317,  318,  319,  320,  321,  322,  323,  324,  325,  326,  327
  328,  329,  330,  331,  332,  333,  334,  335,  336,  337,  338,  339,  340,  341,  342,  343
  344,  345,  346,  347,  348,  349,  350,  351,  352,  353,  354,  355,  356,  357,  358,  359
  360,  361,  362,  363,  364,  365,  366,  367,  368,  369,  370,  371,  372,  373,  374,  375
  376,  377,  378,  379,  380,  381,  382,  383,  384,  385,  386,  387,  388,  389,  390,  391
  392,  393,  394,  395,  396,  397,  398,  399,  400,  401,  402,  403,  404,  405,  406,  407
  408,  409,  410,  411,  412,  413,  414,  415,  416,  417,  418,  419,  420,  421,  422,  423
  424,  425,  426,  427,  428,  429,  430,  431,  432,  433,  434,  435,  436,  437,  438,  439
  440,  441,  442,  443,  444,  445,  446,  447,  448,  449,  450,  451,  452,  453,  454,  455
  456,  457,  458,  459,  460,  461,  462,  463,  464,  465,  466,  467,  468,  469,  470,  471
** ... 223 like lines cut
*Elset, elset=Set-5, generate
  371,  4018,     1
*Nset, nset=Set-6
    1,    2,    3,    4,    5,    6,    7,    8,    9,   10,   11,   12,   13,   14,   15,   16
   17,   18,   19,   20,   21,   22,   23,   24,   25,   26,   27,   28,   29,   30,   31,   32
   69,   70,   71,   72,   73,   74,   75,   76,   77,   78,   79,   80,   81,   82,   83,   84
   85,   86,   87,   88,   89,   90,   91,   92,   93,   94,   95,   96,   97,   98,   99,  100
  101,  102,  103,  104,  105,  106,  107,  108,  109,  110,  111,  112,  113,  114,  115,  116
  117,  118,  119,  120,  121,  122,  123,  124,  125,  126,  127,  128,  129,  130,  131,  132
  133,  134,  135,  136,  137,  138,  139,  140,  141,  142,  143,  144,  145,  146,  147,  148
  149,  150,  151,  152,  153,  154,  155,  156,  157,  158,  159,  160,  161,  162,  163,  164
  165,  166,  167,  168,  169,  170,  171,  172,  173,  174,  175,  176,  177,  178,  179,  180
  181,  182,  183,  184,  185,  186,  187,  188,  189,  190,  191,  192,  193,  194,  195,  196
  197,  198,  199,  200,  201,  202,  203,  204,  205,  206,  207,  208,  209,  210,  211,  212
  213,  214,  215,  216,  217,  218,  219,  220,  221,  222,  223,  224,  225,  226,  227,  228
  229,  230,  231,  232,  233,  234,  235,  236,  237,  238,  239,  240,  241,  242,  243,  244
  245,  246,  247,  248,  249,  250,  251,  252,  253,  254,  255,  256,  257,  258,  259,  260
  261,  262,  263, 1974, 1975, 1976, 1977, 1978, 1979, 1980, 1981, 1982, 1983, 1984, 1985, 1986
 1987, 1988, 1989, 1990, 1991, 1992, 1993, 1994, 1995, 1996, 1997, 1998, 1999, 2000, 2001, 2002
 2003, 2004, 2005, 2006, 2007, 2008, 2009, 2010, 2011, 2012, 2013, 2014, 2015, 2016, 2017, 2018
 2019, 2020, 2021, 2022, 2023, 2024, 2025, 2026, 2027, 2028, 2029, 2030, 2031, 2032, 2033, 2034
 2035, 2036, 2037, 2038, 2039, 2040, 2041, 2042, 2043, 2044, 2045, 2046, 2047, 2048, 2049, 2050
 2051, 2052, 2053, 2054, 2055, 2056, 2057, 2058, 2059, 2060, 2061, 2062, 2063, 2064, 2065, 2066
** ... 10 like lines cut
*Elset, elset=Set-6, generate
   1,  370,    1
** Section: Section-6mm
*Shell Section, elset=Set-6, material=steel
6., 5
** Section: Section-30mm
*Shell Section, elset=Set-5, material=steel
30., 5
** Section: Section-4point5mm
*Shell Section, elset=Set-12, material=steel
4.5, 5
** Section: Section-5point5mm
*Shell Section, elset=Set-11, material=steel
5.5, 5
** Section: Section-4point5mm
*Shell Section, elset=Set-9, material=steel
4.5, 5
** Section: Section-5point5mm
*Shell Section, elset=Set-10, material=steel
5.5, 5
*End Part
**  
**
** ASSEMBLY
**
*Assembly, name=Assembly
**  
*Instance, name=Part-6-1, part=Part-6
*End Instance
**  
*Node
      1,           0.,          15.,          30.
*Nset, nset=Set-6, instance=Part-6-1
    1,    3,    4,    6,    7,    9,   19,   21,   22,   23,   30,   32,   33,   34,   35,   36
   37,   38,   39,   40,   41,   42,   43,   44,   80,   81,   82,   83,   93,   94,   95,   96
  106,  107,  108,  109,  164,  165,  166,  167,  174,  175,  176,  177,  184,  185,  186,  187
  239,  240,  241,  242,  260,  261,  262,  263,  264,  265,  266,  267,  268,  269,  270,  271
  272,  273,  274,  275,  276,  277,  278,  279,  280,  281,  282,  283,  284,  285,  286,  287
  288,  289,  290,  291,  292,  293,  294,  295,  296,  297,  298,  299,  300,  301,  302,  303
  304,  305,  306,  307,  308,  309,  310,  311,  312,  313,  314,  315,  316,  317,  318,  319
  320,  321,  322,  323,  324,  325,  326,  327,  328,  329,  330,  331,  332,  333,  334,  335
  336,  337,  338,  339,  340,  341,  342,  343,  344,  345,  346,  347,  348,  349,  350,  351
  352,  353,  354,  355,  356,  357,  358,  359,  360,  361,  362,  363,  364,  365,  366,  367
  368,  369,  370,  371,  372,  373,  374,  375,  376,  377,  378,  379,  380,  381,  382,  383
  384,  385,  386,  387,  388,  389,  390,  391,  392,  393,  394,  395,  396,  397,  398,  399
  400,  401,  402,  403,  404,  405,  406,  407,  408,  409,  410,  411,  412,  413,  414,  415
  416,  417,  418,  419,  420,  421,  422,  423,  424,  425,  426,  427,  428,  429,  430,  431
  432,  433,  434,  435,  436,  437,  438,  439,  440,  441,  442,  443,  444,  445,  446,  447
  448,  449,  450,  451,  452,  453,  454,  455,  456,  457,  458,  459,  460,  461,  462,  463
  464,  465,  466,  467,  468,  469,  470,  471,  472,  473,  474,  475,  476,  477,  478,  479
  480,  481,  482,  483,  484,  485,  486,  487,  488,  489,  490,  491,  492,  493,  494,  495
  496,  497,  498,  499,  500,  501,  502,  503,  504,  505,  506,  507,  508,  509,  510,  511
  512,  513,  514,  515,  516,  517,  518,  519,  520,  521,  522,  523,  524,  525,  526,  527
** ... 102 like lines cut
*Elset, elset=Set-6, instance=Part-6-1, generate
  371,  2194,     1
*Nset, nset=Set-7
 1,
*Nset, nset=Set-8, instance=Part-6-1
   10,   12,   13,   15,   16,   18,   24,   26,   27,   28,   29,   31,   45,   46,   47,   48
   49,   50,   51,   52,   53,   54,   55,   56,  119,  120,  121,  122,  132,  133,  134,  135
  147,  148,  149,  150,  199,  200,  201,  202,  209,  210,  211,  212,  219,  220,  221,  222
  229,  230,  231,  232,  249,  250,  251,  252,  611,  612,  613,  614,  615,  616,  617,  618
  619,  620,  621,  622,  623,  624,  625,  626,  627,  628,  629,  630,  631,  632,  633,  634
  635,  636,  637,  638,  639,  640,  641,  642,  643,  644,  645,  646,  647,  648,  649,  650
  651,  652,  653,  654,  655,  656,  657,  658,  659,  660,  661,  662,  663,  664,  665,  666
  667,  668,  669,  670,  671,  672,  673,  674,  675,  676,  677,  678,  679,  680,  681,  682
  683,  684,  685,  686,  687,  688,  689,  690,  691,  692,  693,  694,  695,  696,  697,  698
  699,  700,  701,  702,  703,  704,  705,  706,  707,  708,  709,  710,  711,  712,  713,  714
  715,  716,  717,  718,  719,  720,  721,  722,  723,  724,  725,  726,  727,  728,  729,  730
  731,  732,  733,  734,  735,  736,  737,  738,  739,  740,  741,  742,  743,  744,  745,  746
  747,  748,  749,  750,  751,  752,  753,  754,  755,  756,  757,  758,  759,  760,  761,  762
  763,  764,  765,  766,  767,  768,  769,  770,  771,  772,  773,  774,  775,  776,  777,  778
  779,  780,  781,  782,  783,  784,  785,  786,  787,  788,  789,  790,  791,  792,  793,  794
  795,  796,  797,  798,  799,  800,  801,  802,  803,  804,  805,  806,  807,  808,  809,  810
  811,  812,  813,  814,  815,  816,  817,  818,  819,  820,  821,  822,  823,  824,  825,  826
  827,  828,  829,  830,  831,  832,  833,  834,  835,  836,  837,  838,  839,  840,  841,  842
  843,  844,  845,  846,  847,  848,  849,  850,  851,  852,  853,  854,  855,  856,  857,  858
  859,  860,  861,  862,  863,  864,  865,  866,  867,  868,  869,  870,  871,  872,  873,  874
** ... 102 like lines cut
*Elset, elset=Set-8, instance=Part-6-1, generate
 2195,  4018,     1
*Nset, nset=m_Set-5
 1,
*Elset, elset=_Surf-12_SPOS, internal, instance=Part-6-1, generate
 2195,  4018,     1
*Surface, type=ELEMENT, name=Surf-12
_Surf-12_SPOS, SPOS
*Elset, elset=_s_Surf-13_SPOS, internal, instance=Part-6-1, generate
 2195,  4018,     1
*Surface, type=ELEMENT, name=s_Surf-13
_s_Surf-13_SPOS, SPOS
*End Assembly
** 
** MATERIALS
** 
*Material, name=steel
*Density
 7.89e-09,
*Elastic
206000., 0.3
*Plastic
345.,0.
*Material, name=steel-Copy
*Density
 7.89e-09,
*Elastic
206000., 0.3
*Plastic
450.,0.
** ----------------------------------------------------------------
** 
** STEP: Step-1
** 
*Step, name=Step-1, nlgeom=NO
*Static
1., 1., 1e-05, 1.
** 
** BOUNDARY CONDITIONS
** 
** Name: BC-1 Type: Symmetry/Antisymmetry/Encastre
*Boundary
Set-6, ENCASTRE
** Name: BC-2 Type: Displacement/Rotation
*Boundary
Set-8, 1, 1
Set-8, 2, 2
Set-8, 3, 3, -0.5
Set-8, 4, 4
Set-8, 5, 5
Set-8, 6, 6
** 
** OUTPUT REQUESTS
** 
*Restart, write, frequency=0
** 
** FIELD OUTPUT: F-Output-1
** 
*Output, field, variable=PRESELECT, frequency=99999
** 
** HISTORY OUTPUT: H-Output-1
** 
*Output, history, variable=PRESELECT
*End Step
