*Heading
 Conformal common-node FEM counterpart of kuangjia_zhi.dwg
** Job name: kuangjia_zhi_same_geometry_fem Model name: KUANGJIA_ZHI_FEM
** Generated by: Abaqus/CAE 2024
*Preprint, echo=NO, model=NO, history=NO, contact=NO
**
** PARTS
**
*Part, name=KUANGJIA_ZHI_COMMON_NODE
*Node
      1,   644.799988,       -1200.,       23250.
      2,   244.800003,       -1200.,       23250.
      3,   244.800003,       -1200.,       22500.
      4,   644.799988,       -1200.,       22500.
      5,   -86.761734,  -385.700012,       23250.
      6,  -173.523468,  -771.400024,       23250.
      7,  -173.523468,  -771.400024,       22500.
      8,   -86.761734,  -385.700012,       22500.
      9,   1847.70703, 2.01416015e-07,       23250.
     10,   2247.70703, 2.00940121e-07,       23250.
     11,   2247.70703, 2.00940121e-07,       22500.
     12,   1847.70703, 2.01416015e-07,       22500.
     13,   245.207062, 2.00940121e-07,       23250.
     14,   649.207092, 2.00900075e-07,       23250.
     15,   649.207092, 2.00940121e-07,       22500.
     16,   245.207062, 2.00940121e-07,       22500.
     17,   1447.70703,  -144.608704,       21750.
     18,   1477.58765,  -144.608704,       21750.
     19,   1477.58765,  -144.608704,       22500.
     20,   1447.70703,  -144.608704,       22500.
** ... 16255 like lines cut
*Element, type=S4R
  1,    1,  146, 2967,  207
  2,  146,  147, 2968, 2967
  3,  147,  148, 2969, 2968
  4,  148,  149, 2970, 2969
  5,  149,  150, 2971, 2970
  6,  150,  151, 2972, 2971
  7,  151,  152, 2973, 2972
  8,  152,  153, 2974, 2973
  9,  153,  154, 2975, 2974
 10,  154,  155, 2976, 2975
 11,  155,    2,  156, 2976
 12,  207, 2967, 2977,  206
 13, 2967, 2968, 2978, 2977
 14, 2968, 2969, 2979, 2978
 15, 2969, 2970, 2980, 2979
 16, 2970, 2971, 2981, 2980
 17, 2971, 2972, 2982, 2981
 18, 2972, 2973, 2983, 2982
 19, 2973, 2974, 2984, 2983
 20, 2974, 2975, 2985, 2984
** ... 16058 like lines cut
*Element, type=S3
14796, 15681, 15682, 15684
14797, 16013, 16011, 16067
14798, 16173, 16145, 16201
14799, 15737, 15715, 15716
14800, 16026, 15759, 15760
14801, 16227, 16208, 16223
14802, 15774, 15773, 15771
14803, 16328, 16196, 16215
14804, 16217, 16212, 16213
14805, 15342, 15339, 16312
14806, 15311, 15300, 15312
14807, 15410, 15397, 15398
14808, 15923, 15880, 15881
14809, 16101, 16103, 16109
14810, 15224, 15228, 15214
14811, 15315, 15252, 15253
14812, 15361, 15362, 15365
14813, 15415, 15410, 15403
14814, 16336, 15483, 15478
14815, 15421, 15422, 15793
** ... 17 like lines cut
*Elset, elset=ELEMENTS_T_7
 1079, 1080, 1081, 1082, 1083, 1084, 1085, 1086, 1087, 1088, 1089, 1090, 1091, 1092, 1093, 1094
 1095, 1096, 1097, 1098, 1099, 1100, 1101, 1102, 1103, 1104, 1105, 1106, 1107, 1108, 1109, 1110
 1111, 1112, 1113, 1114, 1115, 1116, 1117, 1118, 1119, 1120, 1121, 1122, 1123, 1124, 1125, 1126
 1127, 1128, 1129, 1130, 1131, 1132, 1133, 1134, 1135, 1136, 1137, 1138, 1139, 1140, 1141, 1142
 1143, 1144, 1145, 1146, 1147, 1148, 1149, 1150, 1151, 1152, 1153, 1154, 1155, 1156, 1157, 1158
 1159, 1160, 1161, 1162, 1163, 1164, 1165, 1166, 1167, 1168, 1169, 1170, 1171, 1172, 1173, 1174
 1175, 1176, 1177, 1178, 1179, 1180, 1181, 1182, 1183, 1184, 1185, 1186, 1187, 1188, 1189, 1190
 1191, 1192, 1193, 1194, 1195, 1196, 1197, 1198, 1199, 1200, 1201, 1202, 1203, 1204, 1205, 1206
 1207, 1208, 1209, 1210, 1211, 1212, 1213, 1214, 1215, 1216, 1217, 1218, 1219, 1220, 1221, 1222
 1223, 1224, 1225, 1226, 1227, 1228, 1229, 1230, 1231, 1232, 1233, 1234, 1235, 1236, 1237, 1238
 1239, 1240, 1241, 1242, 1243, 1244, 1245, 1246, 1247, 1248, 1249, 1250, 1251, 1252, 1253, 1254
 7283, 7284, 7285, 7286, 7287, 7288, 7289, 7290, 7291, 7292, 7293, 7294, 7295, 7296, 7297, 7298
 7299, 7300, 7301, 7302, 7303, 7304, 7305, 7306, 7307, 7308, 7309, 7310, 7311, 7312, 7313, 7314
 7315, 7316, 7317, 7318, 7319, 7320, 7321, 7322, 7323, 7324, 7325, 7326, 7327, 7328, 7329, 7330
 7331, 7332, 7333, 7334, 7335, 7336, 7337, 7338, 7339, 7340, 7341, 7342, 7343, 7344, 7345, 7346
 7347, 7348, 7349, 7350, 7351, 7352, 7353, 7354, 7355, 7356, 7357, 7358, 7359, 7360, 7361, 7362
 7363, 7364, 7365, 7366, 7367, 7368, 7369, 7370, 7877, 7878, 7879, 7880, 7881, 7882, 7883, 7884
 7885, 7886, 7887, 7888, 7889, 7890, 7891, 7892, 7893, 7894, 7895, 7896, 7897, 7898, 7899, 7900
 7901, 7902, 7903, 7904, 7905, 7906, 7907, 7908, 7909, 7910, 7911, 7912, 7913, 7914, 7915, 7916
 7917, 7918, 7919, 7920, 7921, 7922, 7923, 7924, 7925, 7926, 7927, 7928, 7929, 7930, 7931, 7932
 7933, 7934, 7935, 7936, 7937, 7938, 7939, 7940, 7941, 7942, 7943, 7944, 7945, 7946, 7947, 7948
 7949, 7950, 7951, 7952, 7953, 7954, 7955, 7956, 7957, 7958, 7959, 7960, 7961, 7962, 7963, 7964
*Elset, elset=ELEMENTS_T_8
  4027,  4028,  4029,  4030,  4031,  4032,  4033,  4034,  4035,  4036,  4037,  4038,  4039,  4040,  4041,  4042
  4043,  4044,  4045,  4046,  4047,  4048,  4049,  4050,  4051,  4052,  4053,  4054,  4055,  4056,  4057,  4058
  4059,  4060,  4061,  4062,  4063,  4064,  4065,  4066,  4067,  4068,  4069,  4070,  4071,  4072,  4073,  4074
  4075,  4076,  4077,  4078,  4079,  4080,  4081,  4082,  4083,  4084,  4085,  4086,  4087,  4088,  4089,  4090
  4091,  4092,  4093,  4094,  4095,  4096,  4097,  4098,  4099,  4100,  4101,  4102,  4103,  4104,  4105,  4106
  4107,  4108,  4109,  4110,  4111,  4112,  4113,  4114,  4115,  4116,  4117,  4118,  4119,  4120,  4121,  4122
  4123,  4124,  4125,  4126,  4127,  4128,  4129,  4130,  4131,  4132,  4133,  4134,  4135,  4136,  4137,  4138
  4139,  4140,  4141,  4142,  4143,  4144,  4145,  4146,  4147,  4148,  4149,  4150,  4151,  4152,  4153,  4154
  4155,  4156,  4157,  4158,  4159,  4160,  4161,  4162,  4163,  4164,  4165,  4166,  4167,  4168,  4169,  4170
  4171,  4172,  4173,  4174,  4175,  4176,  4177,  4178,  4179,  4180,  4181,  4182,  4183,  4184,  4185,  4186
  4187,  4188,  4189,  4190,  4191,  4192,  4193,  4194,  4195,  4196,  4197,  4198,  4199,  4200,  4201,  4202
  4203,  4204,  4205,  4206,  4207,  4208,  4209,  4210,  4211,  4212,  4213,  4214,  4215,  4216,  4217,  4218
  4219,  4220,  4221,  4222,  4223,  4224,  4225,  4226,  4227,  4228,  4229,  4230,  4231,  4232,  4233,  4234
  4235,  4236,  4237,  4238,  4239,  4240,  4241,  4242,  4243,  4244,  4245,  4246,  4247,  4248,  4249,  4250
  4251,  4252,  4253,  4254,  4255,  4256,  4257,  4258,  4259,  4260,  4261,  4262,  4263,  4264,  4265,  4266
  4267,  4268,  4269,  4270,  4271,  4272,  4273,  4274,  4275,  4276,  4277,  4278,  4279,  4280,  4281,  4282
  4283,  4284,  4285,  4286,  4287,  4288,  4289,  4290,  4313,  4314,  4315,  4316,  4317,  4318,  4319,  4320
  4321,  4322,  4323,  4324,  4325,  4326,  4327,  4328,  4329,  4330,  4331,  4332,  4333,  4334,  4335,  4336
  4337,  4338,  4339,  4340,  4341,  4342,  4343,  4344,  4345,  4346,  4347,  4348,  4349,  4350,  4351,  4352
  4353,  4354,  4355,  4356,  4357,  4358,  4359,  4360,  4361,  4362,  4363,  4364,  4365,  4366,  4367,  4368
** ... 195 like lines cut
*Elset, elset=ELEMENTS_T_12
  1387,  1388,  1389,  1390,  1391,  1392,  1393,  1394,  1395,  1396,  1397,  1398,  1399,  1400,  1401,  1402
  1403,  1404,  1405,  1406,  1407,  1408,  1409,  1410,  1411,  1412,  1413,  1414,  1415,  1416,  1417,  1418
  1419,  1420,  1421,  1422,  1423,  1424,  1425,  1426,  1427,  1428,  1429,  1430,  1431,  1432,  1433,  1434
  1435,  1436,  1437,  1438,  1439,  1440,  1441,  1442,  1443,  1444,  1445,  1446,  1447,  1448,  1449,  1450
  1451,  1452,  1453,  1454,  1455,  1456,  1457,  1458,  1459,  1460,  1461,  1462,  1463,  1464,  1465,  1466
  1467,  1468,  1469,  1470,  1471,  1472,  1473,  1474,  1475,  1476,  1477,  1478,  1479,  1480,  1481,  1482
  1483,  1484,  1485,  1486,  1487,  1488,  1489,  1490,  1491,  1492,  1493,  1494,  1495,  1496,  1497,  1498
  1499,  1500,  1501,  1502,  1503,  1504,  1505,  1506,  1507,  1508,  1509,  1510,  1511,  1512,  1513,  1514
  1515,  1516,  1517,  1518,  1519,  1520,  1521,  1522,  1523,  1524,  1525,  1526,  1527,  1528,  1529,  1530
  1531,  1532,  1533,  1534,  1535,  1536,  1537,  1538,  1539,  1540,  1541,  1542,  1543,  1544,  1545,  1546
  1547,  1548,  1549,  1550,  1551,  1552,  1553,  1554,  1555,  1556,  1557,  1558,  1559,  1560,  1561,  1562
  1563,  1564,  1565,  1566,  1567,  1568,  1569,  1570,  1571,  1572,  1573,  1574,  1575,  1576,  1577,  1578
  1579,  1580,  1581,  1582,  1583,  1584,  1585,  1586,  1587,  1588,  1589,  1590,  1591,  1592,  1593,  1594
  1595,  1596,  1597,  1598,  1599,  1600,  1601,  1602,  1603,  1604,  1605,  1606,  1607,  1608,  1609,  1610
  1611,  1612,  1613,  1614,  1615,  1616,  1617,  1618,  1619,  1620,  1621,  1622,  1623,  1624,  1625,  1626
  1627,  1628,  1629,  1630,  1631,  1632,  1633,  1634,  1635,  1636,  1637,  1638,  1639,  1640,  1641,  1642
  1643,  1644,  1645,  1646,  1647,  1648,  1649,  1650,  1651,  1652,  1653,  1654,  1655,  1656,  1657,  1658
  1659,  1660,  1661,  1662,  1663,  1664,  1665,  1666,  1667,  1668,  1669,  1670,  1671,  1672,  1673,  1674
  1675,  1676,  1677,  1678,  1679,  1680,  1681,  1682,  1683,  1684,  1685,  1686,  1687,  1688,  1689,  1690
  1691,  1692,  1693,  1694,  1695,  1696,  1697,  1698,  1699,  1700,  1701,  1702,  1703,  1704,  1705,  1706
** ... 88 like lines cut
*Elset, elset=ELEMENTS_T_13P2174
 1035, 1036, 1037, 1038, 1039, 1040, 1041, 1042, 1043, 1044, 1045, 1046, 1047, 1048, 1049, 1050
 1051, 1052, 1053, 1054, 1055, 1056, 1057, 1058, 1059, 1060, 1061, 1062, 1063, 1064, 1065, 1066
 1067, 1068, 1069, 1070, 1071, 1072, 1073, 1074, 1075, 1076, 1077, 1078, 4291, 4292, 4293, 4294
 4295, 4296, 4297, 4298, 4299, 4300, 4301, 4302, 4303, 4304, 4305, 4306, 4307, 4308, 4309, 4310
 4311, 4312, 5303, 5304, 5305, 5306, 5307, 5308, 5309, 5310, 5311, 5312, 5313, 5314, 5315, 5316
 5317, 5318, 5319, 5320, 5321, 5322, 5323, 5324
*Elset, elset=ELEMENTS_T_14
   485,   486,   487,   488,   489,   490,   491,   492,   493,   494,   495,   496,   497,   498,   499,   500
   501,   502,   503,   504,   505,   506,   507,   508,   509,   510,   511,   512,   513,   514,   515,   516
   517,   518,   519,   520,   521,   522,   523,   524,   525,   526,   527,   528,   529,   530,   531,   532
   533,   534,   535,   536,   537,   538,   539,   540,   541,   542,   543,   544,   545,   546,   547,   548
   549,   550,   551,   552,   553,   554,   555,   556,   557,   558,   559,   560,   561,   562,   563,   564
   565,   566,   567,   568,   569,   570,   571,   572,   573,   574,   575,   576,   577,   578,   579,   580
   581,   582,   583,   584,   585,   586,   587,   588,   589,   590,   591,   592,   593,   594,   595,   596
   597,   598,   599,   600,   601,   602,   603,   604,   605,   606,   607,   608,   609,   610,   611,   612
   613,   614,   615,   616,   617,   618,   619,   620,   621,   622,   623,   624,   625,   626,   627,   628
   629,   630,   631,   632,   633,   634,   635,   636,   637,   638,   639,   640,   641,   642,   643,   644
   645,   646,   647,   648,   649,   650,   651,   652,   653,   654,   655,   656,   657,   658,   659,   660
   661,   662,   663,   664,   665,   666,   667,   668,   669,   670,   671,   672,   673,   674,   675,   676
   677,   678,   679,   680,   681,   682,   683,   684,   685,   686,   687,   688,   689,   690,   691,   692
   693,   694,   695,   696,   697,   698,   699,   700,   701,   702,   703,   704,   705,   706,   707,   708
   709,   710,   711,   712,   713,   714,   715,   716,   717,   718,   719,   720,   721,   722,   723,   724
   725,   726,   727,   728,   729,   730,   731,   732,   733,   734,   735,   736,   737,   738,   739,   740
   741,   742,   743,   744,   745,   746,   747,   748,  1255,  1256,  1257,  1258,  1259,  1260,  1261,  1262
  1263,  1264,  1265,  1266,  1267,  1268,  1269,  1270,  1271,  1272,  1273,  1274,  1275,  1276,  1277,  1278
  1279,  1280,  1281,  1282,  1283,  1284,  1285,  1286,  1287,  1288,  1289,  1290,  1291,  1292,  1293,  1294
  1295,  1296,  1297,  1298,  1299,  1300,  1301,  1302,  1303,  1304,  1305,  1306,  1307,  1308,  1309,  1310
** ... 71 like lines cut
*Elset, elset=ELEMENTS_T_15P3913
 1013, 1014, 1015, 1016, 1017, 1018, 1019, 1020, 1021, 1022, 1023, 1024, 1025, 1026, 1027, 1028
 1029, 1030, 1031, 1032, 1033, 1034, 1365, 1366, 1367, 1368, 1369, 1370, 1371, 1372, 1373, 1374
 1375, 1376, 1377, 1378, 1379, 1380, 1381, 1382, 1383, 1384, 1385, 1386, 2927, 2928, 2929, 2930
 2931, 2932, 2933, 2934, 2935, 2936, 2937, 2938, 2939, 2940, 2941, 2942, 2943, 2944, 2945, 2946
 2947, 2948, 2949, 2950, 2951, 2952, 2953, 2954, 2955, 2956, 2957, 2958, 2959, 2960, 2961, 2962
 2963, 2964, 2965, 2966, 2967, 2968, 2969, 2970, 2971, 2972, 2973, 2974, 2975, 2976, 2977, 2978
 2979, 2980, 2981, 2982, 2983, 2984, 2985, 2986, 2987, 2988, 2989, 2990, 2991, 2992, 2993, 2994
 2995, 2996, 2997, 2998, 2999, 3000, 3001, 3002, 3003, 3004, 3005, 3006, 3007, 3008, 3009, 3010
 3011, 3012, 3013, 3014, 3015, 3016, 3017, 3018, 3019, 3020, 3021, 3022, 3023, 3024, 3025, 3026
 3027, 3028, 3029, 3030, 3031, 3032, 3033, 3034, 3035, 3036, 3037, 3038, 3039, 3040, 3041, 3042
 3043, 3044, 3045, 3046, 3047, 3048, 3049, 3050, 3051, 3052, 3053, 3054, 3055, 3056, 3057, 3058
 3059, 3060, 3061, 3062, 3063, 3064, 3065, 3066, 3067, 3068, 3069, 3070, 3071, 3072, 3073, 3074
 3075, 3076, 3077, 3078, 3079, 3080, 3081, 3082, 3083, 3084, 3085, 3086, 3087, 3088, 3089, 3090
 3091, 3092, 3093, 3094, 3095, 3096, 3097, 3098, 3099, 3100, 3101, 3102, 3103, 3104, 3105, 3106
 3107, 3108, 3109, 3110, 3111, 3112, 3113, 3114, 3115, 3116, 3117, 3118, 3119, 3120, 3121, 3122
 3123, 3124, 3125, 3126, 3127, 3128, 3129, 3130, 3131, 3132, 3133, 3134, 3135, 3136, 3137, 3138
 3139, 3140, 3141, 3142, 3143, 3144, 3145, 3146, 3147, 3148, 3149, 3150, 3151, 3152, 3153, 3154
 3155, 3156, 3157, 3158, 3159, 3160, 3161, 3162, 3163, 3164, 3165, 3166, 3167, 3168, 4401, 4402
 4403, 4404, 4405, 4406, 4407, 4408, 4409, 4410, 4411, 4412, 4413, 4414, 4415, 4416, 4417, 4418
 4419, 4420, 4421, 4422, 4995, 4996, 4997, 4998, 4999, 5000, 5001, 5002, 5003, 5004, 5005, 5006
** ... 5 like lines cut
*Elset, elset=ELEMENTS_T_16
     1,     2,     3,     4,     5,     6,     7,     8,     9,    10,    11,    12,    13,    14,    15,    16
    17,    18,    19,    20,    21,    22,    23,    24,    25,    26,    27,    28,    29,    30,    31,    32
    33,    34,    35,    36,    37,    38,    39,    40,    41,    42,    43,    44,    45,    46,    47,    48
    49,    50,    51,    52,    53,    54,    55,    56,    57,    58,    59,    60,    61,    62,    63,    64
    65,    66,    67,    68,    69,    70,    71,    72,    73,    74,    75,    76,    77,    78,    79,    80
    81,    82,    83,    84,    85,    86,    87,    88,    89,    90,    91,    92,    93,    94,    95,    96
    97,    98,    99,   100,   101,   102,   103,   104,   105,   106,   107,   108,   109,   110,   111,   112
   113,   114,   115,   116,   117,   118,   119,   120,   121,   122,   123,   124,   125,   126,   127,   128
   129,   130,   131,   132,   133,   134,   135,   136,   137,   138,   139,   140,   141,   142,   143,   144
   145,   146,   147,   148,   149,   150,   151,   152,   153,   154,   155,   156,   157,   158,   159,   160
   161,   162,   163,   164,   165,   166,   167,   168,   169,   170,   171,   172,   173,   174,   175,   176
   177,   178,   179,   180,   181,   182,   183,   184,   185,   186,   187,   188,   189,   190,   191,   192
   193,   194,   195,   196,   197,   198,   199,   200,   201,   202,   203,   204,   205,   206,   207,   208
   209,   210,   211,   212,   213,   214,   215,   216,   217,   218,   219,   220,   221,   222,   223,   224
   225,   226,   227,   228,   229,   230,   231,   232,   233,   234,   235,   236,   237,   238,   239,   240
   241,   242,   243,   244,   245,   246,   247,   248,   249,   250,   251,   252,   253,   254,   255,   256
   257,   258,   259,   260,   261,   262,   263,   264,   265,   266,   267,   268,   269,   270,   271,   272
   273,   274,   275,   276,   277,   278,   279,   280,   281,   282,   283,   284,   285,   286,   287,   288
   289,   290,   291,   292,   293,   294,   295,   296,   297,   298,   299,   300,   301,   302,   303,   304
   305,   306,   307,   308,   309,   310,   311,   312,   313,   314,   315,   316,   317,   318,   319,   320
** ... 522 like lines cut
*Nset, nset=FIXED_END_NODES
     1,     2,     3,     4,    76,    77,    78,    98,   103,   105,   106,   115,   146,   147,   148,   149
   150,   151,   152,   153,   154,   155,   156,   157,   158,   159,   160,   161,   162,   163,   164,   165
   166,   167,   168,   169,   170,   171,   172,   173,   174,   175,   176,   177,   178,   179,   180,   181
   182,   183,   184,   185,   186,   187,   188,   189,   190,   191,   192,   193,   194,   195,   196,   197
   198,   199,   200,   201,   202,   203,   204,   205,   206,   207,  1325,  1326,  1327,  1328,  1329,  1330
  1331,  1332,  1333,  1334,  1335,  1336,  1337,  1338,  1339,  1340,  1341,  1342,  1343,  1344,  1345,  1346
  1347,  1348,  1349,  1350,  1351,  1352,  1353,  1354,  1355,  1356,  1357,  1358,  1359,  1360,  1361,  1362
  1363,  1364,  1365,  1366,  1367,  1368,  1369,  1370,  1371,  1372,  1373,  1374,  1375,  1376,  1377,  1378
  1379,  1380,  1381,  1382,  1383,  1384,  1385,  1386,  1387,  1388,  1389,  1390,  1391,  1392,  1393,  1394
  1808,  1809,  1810,  1811,  1812,  1813,  1814,  1815,  1816,  1817,  1818,  1819,  1820,  1821,  1822,  1823
  1824,  1825,  1826,  1827,  1828,  1829,  1830,  1831,  1832,  1833,  1834,  1835,  1836,  1837,  1838,  1839
  1840,  1841,  1842,  1966,  1967,  1968,  1969,  1970,  1971,  1972,  1973,  1974,  1975,  1976,  1977,  1978
  1979,  1980,  1981,  1982,  1983,  1984,  1985,  1986,  1987,  1988,  1989,  1990,  1991,  1992,  1993,  1994
  1995,  1996,  2066,  2067,  2068,  2069,  2070,  2071,  2072,  2073,  2074,  2075,  2076,  2077,  2078,  2079
  2080,  2081,  2082,  2083,  2084,  2085,  2086,  2222,  2223,  2224,  2225,  2226,  2227,  2228,  2229,  2230
  2231,  2232,  2233,  2234,  2235,  2236,  2237,  2238,  2239,  2240,  2241,  2242,  2243,  2244,  2245,  2246
  2247,  2248,  2249,  2250,  2251,  2252,  2253,  2254,  2255,  2256,  2257,  2258,  2259,  2260,  2261,  2262
  2263,  2264,  2265,  2266,  2267,  2268,  2269,  2270,  2271,  2272,  2273,  2274,  2275,  2276,  2277,  2278
  2967,  2968,  2969,  2970,  2971,  2972,  2973,  2974,  2975,  2976,  2977,  2978,  2979,  2980,  2981,  2982
  2983,  2984,  2985,  2986,  2987,  2988,  2989,  2990,  2991,  2992,  2993,  2994,  2995,  2996,  2997,  2998
** ... 93 like lines cut
*Elset, elset=PRESSURE_SIDE1_ELEMENTS
 10055, 10056, 10057, 10058, 10059, 10060, 10061, 10062, 10063, 10064, 10065, 10066, 10067, 10068, 10069, 10070
 10071, 10072, 10073, 10074, 10075, 10076, 10077, 10078, 10079, 10080, 10081, 10082, 10083, 10084, 10085, 10086
 10087, 10088, 10089, 10090, 10091, 10092, 10093, 10094, 10095, 10096, 10097, 10098, 10099, 10100, 10101, 10102
 10103, 10104, 10105, 10106, 10107, 10108, 10109, 10110, 10111, 10112, 10113, 10114, 10115, 10116, 10117, 10118
 10119, 10120, 10407, 10408, 10409, 10410, 10411, 10412, 10413, 10414, 10415, 10416, 10417, 10418, 10419, 10420
 10421, 10422, 10423, 10424, 10425, 10426, 10427, 10428, 10429, 10430, 10431, 10432, 10433, 10434, 10435, 10436
 10437, 10438, 10439, 10440, 10441, 10442, 10443, 10444, 10445, 10446, 10447, 10448, 10449, 10450, 10451, 10452
 10453, 10454, 10455, 10456, 10457, 10458, 10459, 10460, 10461, 10462, 10463, 10464, 10465, 10466, 10467, 10468
 10469, 10470, 10471, 10472
*Elset, elset=PRESSURE_SIDE2_ELEMENTS
 10121, 10122, 10123, 10124, 10125, 10126, 10127, 10128, 10129, 10130, 10131, 10132, 10133, 10134, 10135, 10136
 10137, 10138, 10139, 10140, 10141, 10142, 10143, 10144, 10145, 10146, 10147, 10148, 10149, 10150, 10151, 10152
 10153, 10154, 10155, 10156, 10157, 10158, 10159, 10160, 10161, 10162, 10163, 10164, 10165, 10166, 10167, 10168
 10169, 10170, 10171, 10172, 10173, 10174, 10175, 10176, 10177, 10178, 10179, 10180, 10181, 10182, 10183, 10184
 10185, 10186, 10473, 10474, 10475, 10476, 10477, 10478, 10479, 10480, 10481, 10482, 10483, 10484, 10485, 10486
 10487, 10488, 10489, 10490, 10491, 10492, 10493, 10494, 10495, 10496, 10497, 10498, 10499, 10500, 10501, 10502
 10503, 10504, 10505, 10506, 10507, 10508, 10509, 10510, 10511, 10512, 10513, 10514, 10515, 10516, 10517, 10518
 10519, 10520, 10521, 10522, 10523, 10524, 10525, 10526, 10527, 10528, 10529, 10530, 10531, 10532, 10533, 10534
 10535, 10536, 10537, 10538
** Section: SHELL_T_16
*Shell Section, elset=ELEMENTS_T_16, material=STEEL
16., 5
** Section: SHELL_T_14
*Shell Section, elset=ELEMENTS_T_14, material=STEEL
14., 5
** Section: SHELL_T_15P3913
*Shell Section, elset=ELEMENTS_T_15P3913, material=STEEL
15.3913, 5
** Section: SHELL_T_13P2174
*Shell Section, elset=ELEMENTS_T_13P2174, material=STEEL
13.2174, 5
** Section: SHELL_T_7
*Shell Section, elset=ELEMENTS_T_7, material=STEEL
7., 5
** Section: SHELL_T_12
*Shell Section, elset=ELEMENTS_T_12, material=STEEL
12., 5
** Section: SHELL_T_8
*Shell Section, elset=ELEMENTS_T_8, material=STEEL
8., 5
*End Part
**  
**
** ASSEMBLY
**
*Assembly, name=Assembly
**  
*Instance, name=KUANGJIA_ZHI-1, part=KUANGJIA_ZHI_COMMON_NODE
*End Instance
**  
*Elset, elset=_PRESSURE_END_SPOS, internal, instance=KUANGJIA_ZHI-1
 10055, 10056, 10057, 10058, 10059, 10060, 10061, 10062, 10063, 10064, 10065, 10066, 10067, 10068, 10069, 10070
 10071, 10072, 10073, 10074, 10075, 10076, 10077, 10078, 10079, 10080, 10081, 10082, 10083, 10084, 10085, 10086
 10087, 10088, 10089, 10090, 10091, 10092, 10093, 10094, 10095, 10096, 10097, 10098, 10099, 10100, 10101, 10102
 10103, 10104, 10105, 10106, 10107, 10108, 10109, 10110, 10111, 10112, 10113, 10114, 10115, 10116, 10117, 10118
 10119, 10120, 10407, 10408, 10409, 10410, 10411, 10412, 10413, 10414, 10415, 10416, 10417, 10418, 10419, 10420
 10421, 10422, 10423, 10424, 10425, 10426, 10427, 10428, 10429, 10430, 10431, 10432, 10433, 10434, 10435, 10436
 10437, 10438, 10439, 10440, 10441, 10442, 10443, 10444, 10445, 10446, 10447, 10448, 10449, 10450, 10451, 10452
 10453, 10454, 10455, 10456, 10457, 10458, 10459, 10460, 10461, 10462, 10463, 10464, 10465, 10466, 10467, 10468
 10469, 10470, 10471, 10472
*Elset, elset=_PRESSURE_END_SNEG, internal, instance=KUANGJIA_ZHI-1
 10121, 10122, 10123, 10124, 10125, 10126, 10127, 10128, 10129, 10130, 10131, 10132, 10133, 10134, 10135, 10136
 10137, 10138, 10139, 10140, 10141, 10142, 10143, 10144, 10145, 10146, 10147, 10148, 10149, 10150, 10151, 10152
 10153, 10154, 10155, 10156, 10157, 10158, 10159, 10160, 10161, 10162, 10163, 10164, 10165, 10166, 10167, 10168
 10169, 10170, 10171, 10172, 10173, 10174, 10175, 10176, 10177, 10178, 10179, 10180, 10181, 10182, 10183, 10184
 10185, 10186, 10473, 10474, 10475, 10476, 10477, 10478, 10479, 10480, 10481, 10482, 10483, 10484, 10485, 10486
 10487, 10488, 10489, 10490, 10491, 10492, 10493, 10494, 10495, 10496, 10497, 10498, 10499, 10500, 10501, 10502
 10503, 10504, 10505, 10506, 10507, 10508, 10509, 10510, 10511, 10512, 10513, 10514, 10515, 10516, 10517, 10518
 10519, 10520, 10521, 10522, 10523, 10524, 10525, 10526, 10527, 10528, 10529, 10530, 10531, 10532, 10533, 10534
 10535, 10536, 10537, 10538
*Surface, type=ELEMENT, name=PRESSURE_END
_PRESSURE_END_SPOS, SPOS
_PRESSURE_END_SNEG, SNEG
*End Assembly
** 
** MATERIALS
** 
*Material, name=STEEL
*Elastic
210000., 0.3
** 
** BOUNDARY CONDITIONS
** 
** Name: FIXED_END_TRANSLATIONS Type: Displacement/Rotation
*Boundary
KUANGJIA_ZHI-1.FIXED_END_NODES, 1, 1
KUANGJIA_ZHI-1.FIXED_END_NODES, 2, 2
KUANGJIA_ZHI-1.FIXED_END_NODES, 3, 3
** ----------------------------------------------------------------
** 
** STEP: LOAD
** 
*Step, name=LOAD, nlgeom=NO
*Static
0.1, 1., 1e-08, 0.1
** 
** LOADS
** 
** Name: PRESSURE_0P06_MPA   Type: Pressure
*Dsload
PRESSURE_END, P, 0.06
** 
** OUTPUT REQUESTS
** 
*Restart, write, frequency=0
** 
** FIELD OUTPUT: F-Output-1
** 
*Output, field
*Node Output
RF, U
*Element Output, directions=YES
MISES, S
** 
** HISTORY OUTPUT: ENERGY_HISTORY
** 
*Output, history
*Energy Output
ALLAE, ALLIE, ALLSE, ALLWK
** 
** HISTORY OUTPUT: H-Output-1
** 
*Output, history, variable=PRESELECT
*End Step
